18
Geometry for iteration 0
	    C     0.0000000000   0.0000000000  -0.1778640000
	    C     0.0366780000   1.2193740000   0.5241650000
	    C     0.0317650000   1.2131200000   1.9154440000
	    C     0.0000000000   0.0000000000   2.6101070000
	    C    -0.0317650000  -1.2131200000   1.9154440000
	    C    -0.0366780000  -1.2193750000   0.5241650000
	    C     0.0000000000   0.0000000000  -1.6447340000
	    H     0.0181700000   2.1647050000  -0.0108540000
	    H     0.0424020000   2.1528950000   2.4578860000
	    H     0.0000000000   0.0000000000   3.6957560000
	    H    -0.0424020000  -2.1528950000   2.4578860000
	    H    -0.0181700000  -2.1647050000  -0.0108530000
	    N    -0.7125900000  -0.9059500000  -2.3084610000
	    N     0.7125900000   0.9059500000  -2.3084600000
	    H     0.6734320000   1.0064700000  -3.3159970000
	    H     1.3771900000   1.4859700000  -1.8133160000
	    H    -1.0011260000  -1.7579830000  -1.8457830000
	    H    -1.0457810000  -0.7589730000  -3.2540550000
18
Geometry for iteration 1
	    C     0.0303520149  -0.0373558028  -0.1734334888
	    C     0.0752471081   1.1911031179   0.5105649788
	    C     0.0459464286   1.2072818940   1.9025622042
	    C    -0.0024114128   0.0075121216   2.6175775518
	    C    -0.0306480875  -1.2163280901   1.9418859144
	    C    -0.0195499213  -1.2440709709   0.5513536792
	    C     0.0322250012  -0.0401957891  -1.6447654071
	    H     0.0728016417   2.1284659722  -0.0388438534
	    H     0.0547496628   2.1564317390   2.4287574005
	    H    -0.0172623813   0.0253229377   3.7031494937
	    H    -0.0534209540  -2.1473858410   2.4992211878
	    H     0.0010834044  -2.2041805150   0.0414499261
	    N    -0.7470796192  -0.8859801509  -2.3298421598
	    N     0.6858221390   0.9208145991  -2.2938450943
	    H     0.6376851016   1.0350257281  -3.2998129979
	    H     1.2800137645   1.5694991115  -1.7846573978
	    H    -1.1138232367  -1.7217346801  -1.8876810211
	    H    -0.9280156541  -0.7687423809  -3.3331649163
18
Geometry for iteration 2
	    C     0.0217042797  -0.0121692667  -0.1702298142
	    C     0.0648604013   1.2079118443   0.5302099494
	    C     0.0484205926   1.2051791388   1.9226476965
	    C     0.0090240315  -0.0031538523   2.6225925160
	    C    -0.0256556920  -1.2175139955   1.9302046434
	    C    -0.0251012055  -1.2258516893   0.5394086439
	    C    -0.0046784921  -0.0074665009  -1.6432643348
	    H     0.0445945302   2.1559536425   0.0001950035
	    H     0.0562510027   2.1479559904   2.4602075152
	    H     0.0011551065   0.0006123066   3.7082967691
	    H    -0.0461186656  -2.1563664011   2.4742545012
	    H    -0.0141977961  -2.1796484952   0.0166389540
	    N    -0.8006081683  -0.8496231329  -2.3071453111
	    N     0.6786141735   0.9154548041  -2.3160134500
	    H     0.6506448760   0.9941792762  -3.3267797304
	    H     1.2893886367   1.5578951784  -1.8252284633
	    H    -1.1550668919  -1.6813749243  -1.8516151785
	    H    -0.7895157191  -0.8764909230  -3.3539039100
18
Geometry for iteration 3
	    C     0.0092535398  -0.0089701289  -0.1750797215
	    C     0.0535288440   1.2102631816   0.5253306902
	    C     0.0473738293   1.2056071417   1.9173351856
	    C     0.0107348486  -0.0045951151   2.6150752307
	    C    -0.0257123298  -1.2181584079   1.9213707890
	    C    -0.0322399487  -1.2247072701   0.5304335383
	    C    -0.0065799908  -0.0052166635  -1.6449357769
	    H     0.0375137155   2.1578824296  -0.0055331564
	    H     0.0618762908   2.1473386057   2.4564035956
	    H     0.0102897877  -0.0027695989   3.7006665139
	    H    -0.0404135054  -2.1578214770   2.4638656496
	    H    -0.0182966063  -2.1758842749   0.0038577209
	    N    -0.8081667541  -0.8418636417  -2.3047603728
	    N     0.6822440686   0.9171393835  -2.3089746963
	    H     0.6455194216   1.0136501488  -3.3172372097
	    H     1.3012294269   1.5439727076  -1.8115353650
	    H    -1.1653626714  -1.6636449798  -1.8340475163
	    H    -0.7590769664  -0.9167390408  -3.3217590990
18
Geometry for iteration 4
	    C     0.0067212198  -0.0065321291  -0.1757322874
	    C     0.0451577973   1.2123244618   0.5260711809
	    C     0.0384946340   1.2066198568   1.9178967281
	    C     0.0113430600  -0.0048840819   2.6144113731
	    C    -0.0172162262  -1.2181121958   1.9201988651
	    C    -0.0244053253  -1.2236796520   0.5290147532
	    C    -0.0068237584  -0.0043343193  -1.6457538518
	    H     0.0199559593   2.1593457828  -0.0055166094
	    H     0.0444908617   2.1476361988   2.4583635121
	    H     0.0105090099  -0.0040159917   3.6999793467
	    H    -0.0256752359  -2.1580486957   2.4623611715
	    H    -0.0040331459  -2.1737607909   0.0009771177
	    N    -0.8185159834  -0.8312396622  -2.3071098881
	    N     0.6942637403   0.9080027704  -2.3096402203
	    H     0.6431164743   1.0186526294  -3.3159753323
	    H     1.3358452323   1.5125815632  -1.8129169896
	    H    -1.1844782037  -1.6466198037  -1.8310460625
	    H    -0.7650351102  -0.9184529411  -3.3151068071
18
Geometry for iteration 5
	    C     0.0057242449  -0.0068407886  -0.1758374050
	    C     0.0458200489   1.2123764621   0.5248426907
	    C     0.0409938717   1.2067695829   1.9166174486
	    C     0.0112646581  -0.0047054213   2.6132823952
	    C    -0.0202640263  -1.2181841380   1.9195009749
	    C    -0.0280986682  -1.2240940298   0.5283104030
	    C    -0.0068460575  -0.0045842993  -1.6450964940
	    H     0.0256850795   2.1585829486  -0.0084870335
	    H     0.0511590792   2.1477408696   2.4570304313
	    H     0.0120792021  -0.0035472469   3.6988730209
	    H    -0.0300584993  -2.1579394574   2.4619256274
	    H    -0.0108942436  -2.1737283217  -0.0007321210
	    N    -0.8152192822  -0.8351087096  -2.3057841150
	    N     0.6912326616   0.9112041121  -2.3075679373
	    H     0.6375158757   1.0262304794  -3.3131499743
	    H     1.3300481400   1.5168848351  -1.8092966746
	    H    -1.1775720118  -1.6514956032  -1.8285105754
	    H    -0.7588550727  -0.9240782739  -3.3154446619
18
Geometry for iteration 6
	    C     0.0061072967  -0.0070718185  -0.1756872309
	    C     0.0454897722   1.2122800625   0.5249959301
	    C     0.0398328498   1.2068298938   1.9167400616
	    C     0.0111432668  -0.0046030477   2.6134671141
	    C    -0.0189909207  -1.2182149289   1.9199213866
	    C    -0.0265956096  -1.2243122920   0.5287558095
	    C    -0.0069594831  -0.0046499332  -1.6450956167
	    H     0.0238576551   2.1582322379  -0.0086005398
	    H     0.0482748804   2.1477794366   2.4572110120
	    H     0.0114128287  -0.0032651901   3.6990573704
	    H    -0.0279151824  -2.1578360773   2.4625926925
	    H    -0.0079714560  -2.1739974584  -0.0000737675
	    N    -0.8167710964  -0.8334915434  -2.3062790651
	    N     0.6930003975   0.9094842330  -2.3079470563
	    H     0.6378464638   1.0256128286  -3.3132832231
	    H     1.3333278461   1.5137673693  -1.8099207609
	    H    -1.1806196198  -1.6495165301  -1.8295602158
	    H    -0.7607548893  -0.9215442421  -3.3158179006
18
Geometry for iteration 7
	    C     0.0061072967  -0.0070718185  -0.1756872309
	    C     0.0454897722   1.2122800625   0.5249959301
	    C     0.0398328498   1.2068298938   1.9167400616
	    C     0.0111432668  -0.0046030477   2.6134671141
	    C    -0.0189909207  -1.2182149289   1.9199213866
	    C    -0.0265956096  -1.2243122920   0.5287558095
	    C    -0.0069594831  -0.0046499332  -1.6450956167
	    H     0.0238576551   2.1582322379  -0.0086005398
	    H     0.0482748804   2.1477794366   2.4572110120
	    H     0.0114128287  -0.0032651901   3.6990573704
	    H    -0.0279151824  -2.1578360773   2.4625926925
	    H    -0.0079714560  -2.1739974584  -0.0000737675
	    N    -0.8167710964  -0.8334915434  -2.3062790651
	    N     0.6930003975   0.9094842330  -2.3079470563
	    H     0.6378464638   1.0256128286  -3.3132832231
	    H     1.3333278461   1.5137673693  -1.8099207609
	    H    -1.1806196198  -1.6495165301  -1.8295602158
	    H    -0.7607548893  -0.9215442421  -3.3158179006
