18
Geometry for iteration 0
	    C     0.0000000000   0.0000000000  -0.1778640000
	    C     0.0366780000   1.2193740000   0.5241650000
	    C     0.0317650000   1.2131200000   1.9154440000
	    C     0.0000000000   0.0000000000   2.6101070000
	    C    -0.0317650000  -1.2131200000   1.9154440000
	    C    -0.0366780000  -1.2193750000   0.5241650000
	    C     0.0000000000   0.0000000000  -1.6447340000
	    H     0.0181700000   2.1647050000  -0.0108540000
	    H     0.0424020000   2.1528950000   2.4578860000
	    H     0.0000000000   0.0000000000   3.6957560000
	    H    -0.0424020000  -2.1528950000   2.4578860000
	    H    -0.0181700000  -2.1647050000  -0.0108530000
	    N    -0.7125900000  -0.9059500000  -2.3084610000
	    N     0.7125900000   0.9059500000  -2.3084600000
	    H     0.6734320000   1.0064700000  -3.3159970000
	    H     1.3771900000   1.4859700000  -1.8133160000
	    H    -0.3322510000  -1.3342880000  -3.1422190000
	    H    -1.6095140000  -1.2469060000  -1.9828190000
18
Geometry for iteration 1
	    C    -0.0354873414   0.0413704534  -0.1797433713
	    C     0.0417470322   1.2504197879   0.5437938194
	    C     0.0655790703   1.2218786033   1.9340239477
	    C     0.0142538365  -0.0044716337   2.6069065305
	    C    -0.0679884714  -1.2057283818   1.8922175740
	    C    -0.1034070189  -1.1891376141   0.5012851143
	    C    -0.0454929696   0.0449455114  -1.6420530602
	    H     0.0373342507   2.2050307096   0.0243454281
	    H     0.1107653733   2.1514265182   2.4936722209
	    H     0.0329784238  -0.0234421644   3.6926512271
	    H    -0.1005847357  -2.1540974170   2.4193425189
	    H    -0.1404473273  -2.1216985460  -0.0566917796
	    N    -0.6738640848  -0.9296008349  -2.3250413877
	    N     0.6831768100   0.9283219674  -2.3142328316
	    H     0.6473297633   0.9981055167  -3.3257771123
	    H     1.3727282323   1.4936827630  -1.8326059786
	    H    -0.2797134931  -1.3308192968  -3.1695316341
	    H    -1.4500503504  -1.4649409423  -1.8772852255
18
Geometry for iteration 2
	    C    -0.0426533293   0.0247818604  -0.1814703608
	    C     0.0450659723   1.2368989602   0.5331759062
	    C     0.0719729595   1.2189248902   1.9227088775
	    C     0.0108831772  -0.0007796336   2.6063430166
	    C    -0.0799153782  -1.2061919767   1.9027285960
	    C    -0.1149472571  -1.2000212747   0.5123672634
	    C    -0.0359834550   0.0296688202  -1.6432646036
	    H     0.0484606980   2.1864606197   0.0047171987
	    H     0.1265483368   2.1518758090   2.4744059223
	    H     0.0334338546  -0.0114910494   3.6918625079
	    H    -0.1135531117  -2.1493679678   2.4384723397
	    H    -0.1459637032  -2.1381696800  -0.0326996601
	    N    -0.6923032778  -0.9027877394  -2.3522866481
	    N     0.6838259180   0.9301435612  -2.3047239050
	    H     0.6242012613   1.0302463949  -3.3127604175
	    H     1.3642461699   1.5013184317  -1.8186576072
	    H    -0.2974642581  -1.3076554090  -3.1936300024
	    H    -1.3769975770  -1.4826096169  -1.8620124237
18
Geometry for iteration 3
	    C    -0.0313708279   0.0227573930  -0.1844126689
	    C     0.0471036856   1.2351205491   0.5305971843
	    C     0.0637098196   1.2173134318   1.9202597089
	    C     0.0059990268  -0.0021598888   2.6039771529
	    C    -0.0758349140  -1.2078526569   1.9001101516
	    C    -0.1004219932  -1.2015072695   0.5098855649
	    C    -0.0304020333   0.0295822226  -1.6447080666
	    H     0.0396014881   2.1850039479   0.0033313100
	    H     0.1069756259   2.1506455308   2.4720250698
	    H     0.0201037503  -0.0122721931   3.6895679725
	    H    -0.1119463303  -2.1509279808   2.4355690793
	    H    -0.1232792516  -2.1426135217  -0.0317138767
	    N    -0.7219742924  -0.8804648455  -2.3464184244
	    N     0.7017151313   0.9199340042  -2.3094487542
	    H     0.6325536142   1.0254201250  -3.3153177287
	    H     1.3798655902   1.4941535097  -1.8257724209
	    H    -0.3360766826  -1.2933754466  -3.1882057606
	    H    -1.3574644067  -1.4775119112  -1.8340494932
18
Geometry for iteration 4
	    C    -0.0345797265   0.0213199346  -0.1842546835
	    C     0.0456550392   1.2341406160   0.5295282469
	    C     0.0634254307   1.2176022078   1.9194078237
	    C     0.0051675856  -0.0010277200   2.6044113995
	    C    -0.0749317803  -1.2074946168   1.9014388275
	    C    -0.1021554384  -1.2023013794   0.5110487235
	    C    -0.0306304081   0.0278876500  -1.6454087938
	    H     0.0452284653   2.1832048896   0.0006032162
	    H     0.1104897712   2.1514309995   2.4700697212
	    H     0.0220169691  -0.0102473847   3.6899651625
	    H    -0.1071240576  -2.1504101944   2.4374868247
	    H    -0.1215875185  -2.1443080597  -0.0294034603
	    N    -0.7207452731  -0.8819446854  -2.3486552233
	    N     0.7026246766   0.9182551501  -2.3067673441
	    H     0.6380733106   1.0256869730  -3.3127678120
	    H     1.3695159027   1.5003496033  -1.8164428419
	    H    -0.3331728374  -1.2953092123  -3.1901041967
	    H    -1.3684131111  -1.4755897711  -1.8448795901
18
Geometry for iteration 5
	    C    -0.0327916449   0.0218849788  -0.1842259998
	    C     0.0449059369   1.2345271542   0.5300566057
	    C     0.0621200622   1.2174782246   1.9199473857
	    C     0.0055316911  -0.0014371113   2.6044874146
	    C    -0.0734122096  -1.2076101095   1.9009892434
	    C    -0.0998932125  -1.2018906859   0.5105342305
	    C    -0.0295918411   0.0283464810  -1.6458619997
	    H     0.0415190172   2.1839978051   0.0018861989
	    H     0.1062361149   2.1512753984   2.4708882438
	    H     0.0206989909  -0.0109869403   3.6900469225
	    H    -0.1055575913  -2.1507816478   2.4365701059
	    H    -0.1195233377  -2.1436867882  -0.0302133540
	    N    -0.7234183034  -0.8791968006  -2.3477607249
	    N     0.7063667250   0.9150669402  -2.3085457751
	    H     0.6402065425   1.0238234630  -3.3143082359
	    H     1.3724472317   1.4979348267  -1.8183151360
	    H    -0.3380579196  -1.2944435945  -3.1893748563
	    H    -1.3689292521  -1.4730565939  -1.8415242692
18
Geometry for iteration 6
	    C    -0.0327357180   0.0218584775  -0.1842976411
	    C     0.0454326146   1.2344957312   0.5297534425
	    C     0.0621867937   1.2174727061   1.9196602765
	    C     0.0052965511  -0.0014434629   2.6041989956
	    C    -0.0736434677  -1.2076189530   1.9007314595
	    C    -0.0998931954  -1.2019526981   0.5102478707
	    C    -0.0293964306   0.0281599116  -1.6459916022
	    H     0.0425831154   2.1839522488   0.0015213082
	    H     0.1065022366   2.1512901528   2.4705458109
	    H     0.0205444464  -0.0110006321   3.6897546660
	    H    -0.1060079727  -2.1507958081   2.4362904112
	    H    -0.1200632204  -2.1436384752  -0.0306439911
	    N    -0.7233045313  -0.8796472458  -2.3474347030
	    N     0.7066449243   0.9150076939  -2.3082967082
	    H     0.6398633348   1.0250317884  -3.3138869542
	    H     1.3713676686   1.4989938650  -1.8175125723
	    H    -0.3383069332  -1.2953807099  -3.1889438426
	    H    -1.3682132162  -1.4735395903  -1.8404202266
18
Geometry for iteration 7
	    C    -0.0327357180   0.0218584775  -0.1842976411
	    C     0.0454326146   1.2344957312   0.5297534425
	    C     0.0621867937   1.2174727061   1.9196602765
	    C     0.0052965511  -0.0014434629   2.6041989956
	    C    -0.0736434677  -1.2076189530   1.9007314595
	    C    -0.0998931954  -1.2019526981   0.5102478707
	    C    -0.0293964306   0.0281599116  -1.6459916022
	    H     0.0425831154   2.1839522488   0.0015213082
	    H     0.1065022366   2.1512901528   2.4705458109
	    H     0.0205444464  -0.0110006321   3.6897546660
	    H    -0.1060079727  -2.1507958081   2.4362904112
	    H    -0.1200632204  -2.1436384752  -0.0306439911
	    N    -0.7233045313  -0.8796472458  -2.3474347030
	    N     0.7066449243   0.9150076939  -2.3082967082
	    H     0.6398633348   1.0250317884  -3.3138869542
	    H     1.3713676686   1.4989938650  -1.8175125723
	    H    -0.3383069332  -1.2953807099  -3.1889438426
	    H    -1.3682132162  -1.4735395903  -1.8404202266
