18
Geometry for iteration 0
	    C     0.0000000000   0.0000000000  -0.1778640000
	    C     0.0366780000   1.2193740000   0.5241650000
	    C     0.0317650000   1.2131200000   1.9154440000
	    C     0.0000000000   0.0000000000   2.6101070000
	    C    -0.0317650000  -1.2131200000   1.9154440000
	    C    -0.0366780000  -1.2193750000   0.5241650000
	    C     0.0000000000   0.0000000000  -1.6447340000
	    H     0.0181700000   2.1647050000  -0.0108540000
	    H     0.0424020000   2.1528950000   2.4578860000
	    H     0.0000000000   0.0000000000   3.6957560000
	    H    -0.0424020000  -2.1528950000   2.4578860000
	    H    -0.0181700000  -2.1647050000  -0.0108530000
	    N    -0.7125900000  -0.9059500000  -2.3084610000
	    N     0.7125900000   0.9059500000  -2.3084600000
	    H     0.6734320000   1.0064700000  -3.3159970000
	    H     1.3771900000   1.4859700000  -1.8133160000
	    H    -1.5616450000  -1.2760770000  -1.9017730000
	    H    -0.4824950000  -1.2060750000  -3.2485390000
18
Geometry for iteration 1
	    C    -0.0232149165   0.0230368834  -0.1734638394
	    C     0.0332317492   1.2380819167   0.5384880830
	    C     0.0505203628   1.2209637929   1.9290738075
	    C     0.0127258122   0.0009017713   2.6129422066
	    C    -0.0483239968  -1.2065704776   1.9087378086
	    C    -0.0749632776  -1.2019622547   0.5175844767
	    C    -0.0289873212   0.0203232050  -1.6367535292
	    H     0.0185213839   2.1878363164   0.0109013162
	    H     0.0804928264   2.1556135557   2.4801153702
	    H     0.0267755810  -0.0083582171   3.6986654291
	    H    -0.0691610384  -2.1504589639   2.4438536926
	    H    -0.0920891095  -2.1394481964  -0.0313764617
	    N    -0.6608610429  -0.9581208303  -2.2998815739
	    N     0.6937129229   0.9093983704  -2.3106160650
	    H     0.6620235937   0.9812454402  -3.3216729292
	    H     1.3758348999   1.4809321201  -1.8273090683
	    H    -1.4728108379  -1.4085712673  -1.8883157621
	    H    -0.4769455912  -1.1345561647  -3.2909709618
18
Geometry for iteration 2
	    C    -0.0131886879  -0.0002705504  -0.1716826251
	    C     0.0393041308   1.2219381989   0.5277056179
	    C     0.0466847809   1.2205057932   1.9180357036
	    C     0.0035051252   0.0081846177   2.6155975867
	    C    -0.0506106697  -1.2070671815   1.9252330125
	    C    -0.0650998374  -1.2184504912   0.5341260049
	    C     0.0016833350  -0.0119281116  -1.6339423395
	    H     0.0297978985   2.1651744152  -0.0118958169
	    H     0.0738059494   2.1609960815   2.4588612068
	    H     0.0126762453   0.0110112896   3.7014039449
	    H    -0.0700994923  -2.1445794151   2.4715565142
	    H    -0.0671721009  -2.1621290343  -0.0026489018
	    N    -0.6354658271  -0.9772411472  -2.3086970169
	    N     0.6998294205   0.9025019885  -2.3016483527
	    H     0.6502011287   0.9962946672  -3.3101961879
	    H     1.3669578566   1.4892367672  -1.8156468287
	    H    -1.4602581765  -1.4044035062  -1.9037647347
	    H    -0.5560690790  -1.0394873815  -3.3323947874
18
Geometry for iteration 3
	    C    -0.0058808318   0.0020717423  -0.1748650725
	    C     0.0445027969   1.2227177679   0.5264267412
	    C     0.0437415301   1.2185200685   1.9167602173
	    C    -0.0006575161   0.0055995317   2.6124934995
	    C    -0.0509444059  -1.2082089304   1.9200585993
	    C    -0.0577945206  -1.2169164982   0.5291626859
	    C    -0.0008386035  -0.0048887511  -1.6372266593
	    H     0.0320146795   2.1672153750  -0.0104437796
	    H     0.0658650922   2.1581617865   2.4589712885
	    H     0.0028538718   0.0068958869   3.6982100706
	    H    -0.0736048655  -2.1465065452   2.4647026616
	    H    -0.0562230042  -2.1602204614  -0.0081864746
	    N    -0.6387581754  -0.9738713253  -2.3007559305
	    N     0.7027141370   0.9043168074  -2.3066003238
	    H     0.6625582961   0.9934785137  -3.3152865425
	    H     1.3681702660   1.4908104605  -1.8194529571
	    H    -1.4555437502  -1.4015776186  -1.8828977473
	    H    -0.5756929962  -1.0473108102  -3.3110682767
18
Geometry for iteration 4
	    C    -0.0060775890   0.0017813540  -0.1751699974
	    C     0.0405743734   1.2225048921   0.5264365010
	    C     0.0413692174   1.2184954021   1.9169451052
	    C    -0.0010234635   0.0057224699   2.6126709491
	    C    -0.0484627008  -1.2081580991   1.9198186566
	    C    -0.0566648929  -1.2169676065   0.5289062953
	    C    -0.0009995415  -0.0044992125  -1.6384091871
	    H     0.0278977689   2.1673644579  -0.0097962538
	    H     0.0633292760   2.1582751762   2.4590061785
	    H     0.0028225564   0.0070884648   3.6983731404
	    H    -0.0683420984  -2.1466944533   2.4641546132
	    H    -0.0516676594  -2.1605855501  -0.0081706089
	    N    -0.6416468692  -0.9717975332  -2.3015870365
	    N     0.7058701945   0.9020694480  -2.3068802682
	    H     0.6717879310   0.9885559784  -3.3160377797
	    H     1.3696644011   1.4887080521  -1.8176323570
	    H    -1.4595910367  -1.3962688147  -1.8815287642
	    H    -0.5823578674  -1.0453074261  -3.3110971865
18
Geometry for iteration 5
	    C    -0.0055858864   0.0016648946  -0.1752466888
	    C     0.0417244172   1.2223704221   0.5260950802
	    C     0.0414880939   1.2184241594   1.9166782479
	    C    -0.0010642982   0.0057031480   2.6124614591
	    C    -0.0483153282  -1.2081730948   1.9195583759
	    C    -0.0558442497  -1.2170591559   0.5286213230
	    C    -0.0009707424  -0.0044817366  -1.6387162160
	    H     0.0293123488   2.1672699196  -0.0101377856
	    H     0.0628471661   2.1583293504   2.4585552787
	    H     0.0018945393   0.0070451544   3.6981611116
	    H    -0.0688955392  -2.1467514971   2.4638028630
	    H    -0.0517632012  -2.1606762046  -0.0085252364
	    N    -0.6416228593  -0.9723038517  -2.3012103196
	    N     0.7055350506   0.9024193463  -2.3066375540
	    H     0.6734989232   0.9881159015  -3.3159452556
	    H     1.3675120148   1.4904176767  -1.8164451031
	    H    -1.4591392988  -1.3965903452  -1.8798965858
	    H    -0.5841291505  -1.0454370870  -3.3111709943
18
Geometry for iteration 6
	    C    -0.0055858864   0.0016648946  -0.1752466888
	    C     0.0417244172   1.2223704221   0.5260950802
	    C     0.0414880939   1.2184241594   1.9166782479
	    C    -0.0010642982   0.0057031480   2.6124614591
	    C    -0.0483153282  -1.2081730948   1.9195583759
	    C    -0.0558442497  -1.2170591559   0.5286213230
	    C    -0.0009707424  -0.0044817366  -1.6387162160
	    H     0.0293123488   2.1672699196  -0.0101377856
	    H     0.0628471661   2.1583293504   2.4585552787
	    H     0.0018945393   0.0070451544   3.6981611116
	    H    -0.0688955392  -2.1467514971   2.4638028630
	    H    -0.0517632012  -2.1606762046  -0.0085252364
	    N    -0.6416228593  -0.9723038517  -2.3012103196
	    N     0.7055350506   0.9024193463  -2.3066375540
	    H     0.6734989232   0.9881159015  -3.3159452556
	    H     1.3675120148   1.4904176767  -1.8164451031
	    H    -1.4591392988  -1.3965903452  -1.8798965858
	    H    -0.5841291505  -1.0454370870  -3.3111709943
