18
Geometry for iteration 0
	    C     0.0000000000   0.0000000000  -0.1778640000
	    C     0.0366780000   1.2193740000   0.5241650000
	    C     0.0317650000   1.2131200000   1.9154440000
	    C     0.0000000000   0.0000000000   2.6101070000
	    C    -0.0317650000  -1.2131200000   1.9154440000
	    C    -0.0366780000  -1.2193750000   0.5241650000
	    C     0.0000000000   0.0000000000  -1.6447340000
	    H     0.0181700000   2.1647050000  -0.0108540000
	    H     0.0424020000   2.1528950000   2.4578860000
	    H     0.0000000000   0.0000000000   3.6957560000
	    H    -0.0424020000  -2.1528950000   2.4578860000
	    H    -0.0181700000  -2.1647050000  -0.0108530000
	    N     1.0150730000   0.5460370000  -2.3084600000
	    N    -1.0150730000  -0.5460370000  -2.3084600000
	    H    -1.0193110000  -0.6538310000  -3.3159970000
	    H    -1.8559980000  -0.8124210000  -1.8133170000
	    H     1.8559980000   0.8124210000  -1.8133160000
	    H     1.0193120000   0.6538320000  -3.3159960000
18
Geometry for iteration 1
	    C     0.0410856068   0.0173312057  -0.1779115759
	    C     0.0832398518   1.2317373437   0.5270771107
	    C     0.0581428932   1.2127165266   1.9194380369
	    C    -0.0083559287  -0.0056841025   2.6032610873
	    C    -0.0694816892  -1.2120692442   1.8982070250
	    C    -0.0643562808  -1.2075202643   0.5056313577
	    C    -0.0006109348   0.0314841877  -1.6481287499
	    H     0.1185645120   2.1775368594  -0.0092831523
	    H     0.0884996017   2.1478085097   2.4697115268
	    H    -0.0226563161  -0.0148096893   3.6889445961
	    H    -0.1290992680  -2.1561098761   2.4324038067
	    H    -0.1150119032  -2.1448723778  -0.0461847696
	    N     0.9924556172   0.5976889142  -2.3235514058
	    N    -0.9868808170  -0.6046958109  -2.2763794605
	    H    -1.0135400498  -0.7310640983  -3.2828392142
	    H    -1.7778343356  -0.9611720524  -1.7431998948
	    H     1.8058110994   0.9411999165  -1.8214421561
	    H     1.0000293410   0.6804940522  -3.3347521680
18
Geometry for iteration 2
	    C     0.0572434455   0.0038667634  -0.1769292335
	    C     0.0907881989   1.2218418520   0.5220251612
	    C     0.0539921350   1.2103561814   1.9144975128
	    C    -0.0184496648  -0.0041144094   2.6027148810
	    C    -0.0704263517  -1.2138222326   1.9031055610
	    C    -0.0554240756  -1.2164709072   0.5106301683
	    C     0.0109375206   0.0138513561  -1.6488267360
	    H     0.1304555367   2.1632565410  -0.0191019239
	    H     0.0737008866   2.1478466252   2.4609579941
	    H    -0.0399744962  -0.0079708275   3.6881693360
	    H    -0.1259076024  -2.1545193236   2.4416054344
	    H    -0.0935886765  -2.1537369011  -0.0378618505
	    N     0.9962060038   0.5865451747  -2.3279327588
	    N    -0.9892944668  -0.5959562001  -2.2732390600
	    H    -1.0341002655  -0.7042022987  -3.2810919469
	    H    -1.7754430381  -0.9382424380  -1.7340847580
	    H     1.7963739300   0.9527552159  -1.8263225341
	    H     0.9929119805   0.6887158286  -3.3373132472
18
Geometry for iteration 3
	    C     0.0502687194   0.0046352002  -0.1771423783
	    C     0.0913968224   1.2224091214   0.5219619661
	    C     0.0568011448   1.2107178077   1.9144389080
	    C    -0.0184262095  -0.0036941646   2.6021483094
	    C    -0.0718427389  -1.2134620570   1.9028653733
	    C    -0.0574044020  -1.2160051923   0.5104834374
	    C     0.0059050231   0.0167785898  -1.6498504881
	    H     0.1318724239   2.1639947846  -0.0182919133
	    H     0.0785407128   2.1479111476   2.4611444213
	    H    -0.0392479600  -0.0077036241   3.6875556248
	    H    -0.1252960136  -2.1538019411   2.4418012382
	    H    -0.0905219962  -2.1530284631  -0.0377376797
	    N     0.9964542016   0.5836347322  -2.3262230973
	    N    -0.9906134819  -0.5955122541  -2.2755656566
	    H    -1.0334990659  -0.7033761174  -3.2830329834
	    H    -1.7720924335  -0.9455144681  -1.7368942522
	    H     1.7925334340   0.9523665095  -1.8218543596
	    H     0.9951728193   0.6896503886  -3.3348044701
18
Geometry for iteration 4
	    C     0.0498272321   0.0036610613  -0.1772449113
	    C     0.0905171490   1.2218499480   0.5211339580
	    C     0.0565740933   1.2108224019   1.9136559882
	    C    -0.0185749687  -0.0033012630   2.6020071856
	    C    -0.0734846057  -1.2133633452   1.9033248023
	    C    -0.0594031064  -1.2165374624   0.5109174696
	    C     0.0078724796   0.0153712970  -1.6501145117
	    H     0.1305974650   2.1634595562  -0.0193655343
	    H     0.0799063365   2.1482385872   2.4599107207
	    H    -0.0398695215  -0.0068246458   3.6874326687
	    H    -0.1288122311  -2.1533771643   2.4428086624
	    H    -0.0941367194  -2.1540507302  -0.0368049699
	    N     1.0001048376   0.5815741962  -2.3249520079
	    N    -0.9898741834  -0.5944255688  -2.2767033813
	    H    -1.0323921529  -0.7012353110  -3.2842503404
	    H    -1.7719371858  -0.9452280256  -1.7384844996
	    H     1.7946305501   0.9522351642  -1.8191447748
	    H     0.9984555316   0.6911313043  -3.3331245243
18
Geometry for iteration 5
	    C     0.0499897727   0.0035319336  -0.1772260923
	    C     0.0910674412   1.2217119418   0.5211082316
	    C     0.0567362309   1.2107983834   1.9136500210
	    C    -0.0187171525  -0.0032597775   2.6021022693
	    C    -0.0737237503  -1.2133146913   1.9034198059
	    C    -0.0593459188  -1.2165639375   0.5109877759
	    C     0.0079316612   0.0152528394  -1.6501097917
	    H     0.1309331034   2.1633910000  -0.0193532318
	    H     0.0803148494   2.1482494444   2.4598513099
	    H    -0.0397243016  -0.0067683056   3.6875428743
	    H    -0.1293751737  -2.1533199865   2.4429251493
	    H    -0.0945410094  -2.1541948385  -0.0366491517
	    N     1.0002344717   0.5811580136  -2.3250095812
	    N    -0.9898924318  -0.5942987203  -2.2769134978
	    H    -1.0320059614  -0.7016207279  -3.2844838464
	    H    -1.7718225984  -0.9458358049  -1.7387195623
	    H     1.7940278009   0.9533867978  -1.8189966790
	    H     0.9979139666   0.6916964359  -3.3331240028
18
Geometry for iteration 6
	    C     0.0499897727   0.0035319336  -0.1772260923
	    C     0.0910674412   1.2217119418   0.5211082316
	    C     0.0567362309   1.2107983834   1.9136500210
	    C    -0.0187171525  -0.0032597775   2.6021022693
	    C    -0.0737237503  -1.2133146913   1.9034198059
	    C    -0.0593459188  -1.2165639375   0.5109877759
	    C     0.0079316612   0.0152528394  -1.6501097917
	    H     0.1309331034   2.1633910000  -0.0193532318
	    H     0.0803148494   2.1482494444   2.4598513099
	    H    -0.0397243016  -0.0067683056   3.6875428743
	    H    -0.1293751737  -2.1533199865   2.4429251493
	    H    -0.0945410094  -2.1541948385  -0.0366491517
	    N     1.0002344717   0.5811580136  -2.3250095812
	    N    -0.9898924318  -0.5942987203  -2.2769134978
	    H    -1.0320059614  -0.7016207279  -3.2844838464
	    H    -1.7718225984  -0.9458358049  -1.7387195623
	    H     1.7940278009   0.9533867978  -1.8189966790
	    H     0.9979139666   0.6916964359  -3.3331240028
