18
Geometry for iteration 0
	    C     0.0000000000   0.0000000000  -0.1778640000
	    C     0.0366780000   1.2193740000   0.5241650000
	    C     0.0317650000   1.2131200000   1.9154440000
	    C     0.0000000000   0.0000000000   2.6101070000
	    C    -0.0317650000  -1.2131200000   1.9154440000
	    C    -0.0366780000  -1.2193750000   0.5241650000
	    C     0.0000000000   0.0000000000  -1.6447340000
	    H     0.0181700000   2.1647050000  -0.0108540000
	    H     0.0424020000   2.1528950000   2.4578860000
	    H     0.0000000000   0.0000000000   3.6957560000
	    H    -0.0424020000  -2.1528950000   2.4578860000
	    H    -0.0181700000  -2.1647050000  -0.0108530000
	    N    -0.9048330000  -0.7140070000  -2.3084610000
	    N     0.9048330000   0.7140070000  -2.3084600000
	    H     0.8902890000   0.8209000000  -3.3159970000
	    H     1.6867260000   1.1223690000  -1.8133160000
	    H    -1.6867260000  -1.1223690000  -1.8133170000
	    H    -0.8902890000  -0.8209000000  -3.3159970000
18
Geometry for iteration 1
	    C     0.0524637915  -0.0145336244  -0.1787962984
	    C     0.0870318594   1.2091885106   0.5122826527
	    C     0.0523825909   1.2090032421   1.9042055611
	    C    -0.0148944123  -0.0006014023   2.6037976546
	    C    -0.0643854126  -1.2167010651   1.9147331255
	    C    -0.0474582471  -1.2303010777   0.5226869399
	    C     0.0324339006  -0.0201892088  -1.6459086887
	    H     0.1138228789   2.1484473911  -0.0353549010
	    H     0.0722532725   2.1512001143   2.4423447274
	    H    -0.0370717342   0.0046901246   3.6894785721
	    H    -0.1186830449  -2.1534698812   2.4616012742
	    H    -0.0764722119  -2.1752254544  -0.0150171241
	    N    -0.8773121766  -0.7476173384  -2.2853661146
	    N     0.8766389051   0.7622075389  -2.3155827291
	    H     0.8352384521   0.8917761334  -3.3209253224
	    H     1.6288835105   1.2292696503  -1.8208512949
	    H    -1.6119075747  -1.2073123053  -1.7566884103
	    H    -0.9029643473  -0.8398323476  -3.2956396241
18
Geometry for iteration 2
	    C     0.0505857242  -0.0078677201  -0.1778741668
	    C     0.0836890100   1.2137936512   0.5171898243
	    C     0.0467694139   1.2096826973   1.9088591667
	    C    -0.0179484102  -0.0015044797   2.6043749995
	    C    -0.0599743791  -1.2157442652   1.9119918770
	    C    -0.0412168618  -1.2252468130   0.5201921274
	    C     0.0204862457  -0.0065648231  -1.6464997026
	    H     0.1052793838   2.1542097517  -0.0264580713
	    H     0.0590013928   2.1502983548   2.4499815312
	    H    -0.0399987134   0.0009396223   3.6898081902
	    H    -0.1052146586  -2.1536464911   2.4561849372
	    H    -0.0571056631  -2.1677966921  -0.0203148768
	    N    -0.8885433522  -0.7343615359  -2.2852218057
	    N     0.8797067532   0.7518049679  -2.3192239881
	    H     0.8448272191   0.8715433540  -3.3254305296
	    H     1.6426088420   1.1989126657  -1.8261712123
	    H    -1.6143174699  -1.2017270035  -1.7565701323
	    H    -0.9086344763  -0.8367262413  -3.2938181680
18
Geometry for iteration 3
	    C     0.0458313839  -0.0111240339  -0.1778407091
	    C     0.0834561273   1.2115214265   0.5153262067
	    C     0.0487854615   1.2095236120   1.9071042418
	    C    -0.0182032667  -0.0003763330   2.6042436373
	    C    -0.0608535871  -1.2157792868   1.9139167940
	    C    -0.0433420305  -1.2274045101   0.5222056280
	    C     0.0211841415  -0.0098681160  -1.6473782045
	    H     0.1078954465   2.1510171636  -0.0293634713
	    H     0.0637446844   2.1507900698   2.4469805210
	    H    -0.0394537789   0.0037812235   3.6896477006
	    H    -0.1036692493  -2.1526174097   2.4598118663
	    H    -0.0539121454  -2.1708708448  -0.0164182432
	    N    -0.8897044972  -0.7324759931  -2.2889949554
	    N     0.8789497626   0.7521152222  -2.3163833128
	    H     0.8449775175   0.8751252122  -3.3220100828
	    H     1.6369634489   1.2024562475  -1.8199264395
	    H    -1.6144698877  -1.2025222322  -1.7624163220
	    H    -0.9081795310  -0.8332924180  -3.2975048549
18
Geometry for iteration 4
	    C     0.0454923327  -0.0102758054  -0.1779360350
	    C     0.0824109529   1.2122021699   0.5156511432
	    C     0.0488521476   1.2095913536   1.9074991453
	    C    -0.0168957730  -0.0006691649   2.6042124657
	    C    -0.0604378714  -1.2157695108   1.9133766526
	    C    -0.0436448948  -1.2267675666   0.5216322088
	    C     0.0207818516  -0.0085489237  -1.6475037180
	    H     0.1046855787   2.1521933596  -0.0284413543
	    H     0.0639803652   2.1506324105   2.4477523796
	    H    -0.0383265539   0.0030008346   3.6896426655
	    H    -0.1042905042  -2.1528238452   2.4589187016
	    H    -0.0560036421  -2.1701160565  -0.0173342026
	    N    -0.8901537961  -0.7318726052  -2.2884307239
	    N     0.8800648757   0.7517167717  -2.3168440661
	    H     0.8465649045   0.8738197970  -3.3226134918
	    H     1.6382617679   1.2021888525  -1.8205871431
	    H    -1.6137459621  -1.2034953894  -1.7612246139
	    H    -0.9075957794  -0.8350076818  -3.2967700136
18
Geometry for iteration 5
	    C     0.0453805657  -0.0101884102  -0.1779430910
	    C     0.0826288096   1.2122462567   0.5156799922
	    C     0.0488405363   1.2096107078   1.9075441185
	    C    -0.0169818221  -0.0006759810   2.6042277943
	    C    -0.0605625014  -1.2157253599   1.9133124391
	    C    -0.0436920445  -1.2266719104   0.5215437413
	    C     0.0206469146  -0.0084513670  -1.6475406774
	    H     0.1047563273   2.1523187392  -0.0283286768
	    H     0.0642605650   2.1506302537   2.4478293523
	    H    -0.0379832281   0.0028898461   3.6896737671
	    H    -0.1044660440  -2.1528248432   2.4588040888
	    H    -0.0563498352  -2.1700735944  -0.0173893132
	    N    -0.8904566004  -0.7315098322  -2.2885390936
	    N     0.8802207755   0.7514816401  -2.3168405442
	    H     0.8467032164   0.8736480767  -3.3226264221
	    H     1.6378204443   1.2028491783  -1.8203675899
	    H    -1.6135039348  -1.2039578036  -1.7612086942
	    H    -0.9072621442  -0.8355965967  -3.2968311913
18
Geometry for iteration 6
	    C     0.0453805657  -0.0101884102  -0.1779430910
	    C     0.0826288096   1.2122462567   0.5156799922
	    C     0.0488405363   1.2096107078   1.9075441185
	    C    -0.0169818221  -0.0006759810   2.6042277943
	    C    -0.0605625014  -1.2157253599   1.9133124391
	    C    -0.0436920445  -1.2266719104   0.5215437413
	    C     0.0206469146  -0.0084513670  -1.6475406774
	    H     0.1047563273   2.1523187392  -0.0283286768
	    H     0.0642605650   2.1506302537   2.4478293523
	    H    -0.0379832281   0.0028898461   3.6896737671
	    H    -0.1044660440  -2.1528248432   2.4588040888
	    H    -0.0563498352  -2.1700735944  -0.0173893132
	    N    -0.8904566004  -0.7315098322  -2.2885390936
	    N     0.8802207755   0.7514816401  -2.3168405442
	    H     0.8467032164   0.8736480767  -3.3226264221
	    H     1.6378204443   1.2028491783  -1.8203675899
	    H    -1.6135039348  -1.2039578036  -1.7612086942
	    H    -0.9072621442  -0.8355965967  -3.2968311913
