18
Geometry for iteration 0
	    C     0.0000000000   0.0000000000  -0.1778640000
	    C     0.0366780000   1.2193740000   0.5241650000
	    C     0.0317650000   1.2131200000   1.9154440000
	    C     0.0000000000   0.0000000000   2.6101070000
	    C    -0.0317650000  -1.2131200000   1.9154440000
	    C    -0.0366780000  -1.2193750000   0.5241650000
	    C     0.0000000000   0.0000000000  -1.6447340000
	    H     0.0181700000   2.1647050000  -0.0108540000
	    H     0.0424020000   2.1528950000   2.4578860000
	    H     0.0000000000   0.0000000000   3.6957560000
	    H    -0.0424020000  -2.1528950000   2.4578860000
	    H    -0.0181700000  -2.1647050000  -0.0108530000
	    N     1.1406120000   0.1659320000  -2.3084600000
	    N    -1.1406120000  -0.1659320000  -2.3084610000
	    H    -1.1814630000  -0.2657750000  -3.3159970000
	    H    -2.0219320000  -0.1286370000  -1.8133170000
	    H     2.0219320000   0.1286370000  -1.8133160000
	    H     1.1814630000   0.2657760000  -3.3159970000
18
Geometry for iteration 1
	    C     0.0314008750   0.0127128726  -0.1751653723
	    C     0.0672315368   1.2286084685   0.5244486345
	    C     0.0480152904   1.2131028748   1.9176428590
	    C    -0.0086444784  -0.0025236081   2.6054400074
	    C    -0.0578907877  -1.2102018484   1.9034221447
	    C    -0.0495962366  -1.2101103939   0.5100592384
	    C     0.0083923725   0.0220594228  -1.6525144082
	    H     0.1084821310   2.1732145191  -0.0144017553
	    H     0.0808555809   2.1501413190   2.4645253856
	    H    -0.0210118729  -0.0085631531   3.6910969884
	    H    -0.1128348123  -2.1531646881   2.4396074121
	    H    -0.0978256573  -2.1491181085  -0.0389234561
	    N     1.1393939811   0.2034516903  -2.3198585387
	    N    -1.1345878516  -0.2116674737  -2.2861907974
	    H    -1.2034035517  -0.2903554648  -3.2962800260
	    H    -1.9998689815  -0.2863121832  -1.7517187065
	    H     2.0159193012   0.2709787313  -1.8059336778
	    H     1.1859731610   0.2477470233  -3.3342559319
18
Geometry for iteration 2
	    C     0.0496948134   0.0059944879  -0.1738907522
	    C     0.0823885972   1.2242673428   0.5197030884
	    C     0.0490493354   1.2119276411   1.9134721533
	    C    -0.0197488467  -0.0019127346   2.6020911957
	    C    -0.0674417883  -1.2110546502   1.9027875456
	    C    -0.0500291469  -1.2149172604   0.5090118977
	    C     0.0158358134   0.0101455646  -1.6561288029
	    H     0.1335751196   2.1649053994  -0.0218650489
	    H     0.0728433763   2.1499292094   2.4590135277
	    H    -0.0405100647  -0.0056541857   3.6874958094
	    H    -0.1235850113  -2.1522278112   2.4404802506
	    H    -0.0979567694  -2.1512240676  -0.0403084148
	    N     1.1409413388   0.1968057408  -2.3280830755
	    N    -1.1344489876  -0.2121096043  -2.2733338496
	    H    -1.2280497335  -0.2660755320  -3.2832568920
	    H    -1.9794386487  -0.3074050236  -1.7211140595
	    H     2.0070022574   0.3209742328  -1.8138282445
	    H     1.1898783457   0.2376312507  -3.3412463286
18
Geometry for iteration 3
	    C     0.0412021456   0.0097447234  -0.1740226344
	    C     0.0817706757   1.2270652318   0.5210526028
	    C     0.0529720034   1.2125996885   1.9148587155
	    C    -0.0183939490  -0.0021170799   2.6016685404
	    C    -0.0693396515  -1.2105453898   1.9014319364
	    C    -0.0533644699  -1.2125880145   0.5076155265
	    C     0.0118673130   0.0162122091  -1.6568957033
	    H     0.1322921432   2.1685529481  -0.0182912658
	    H     0.0808288666   2.1494899916   2.4619445006
	    H    -0.0372413533  -0.0072230966   3.6870782272
	    H    -0.1239494099  -2.1519212715   2.4386270813
	    H    -0.0956723703  -2.1483549540  -0.0420868916
	    N     1.1406767756   0.1945939955  -2.3251749740
	    N    -1.1355323692  -0.2113721333  -2.2766200229
	    H    -1.2266073111  -0.2697670619  -3.2856689005
	    H    -1.9782397752  -0.3191432606  -1.7268254760
	    H     2.0028618596   0.3198648986  -1.8100303514
	    H     1.1938688766   0.2349085755  -3.3376609107
18
Geometry for iteration 4
	    C     0.0414149730   0.0079034221  -0.1739900444
	    C     0.0823953480   1.2256504772   0.5201560383
	    C     0.0546066758   1.2121926329   1.9140165407
	    C    -0.0168293313  -0.0019612131   2.6017909334
	    C    -0.0699122843  -1.2107633384   1.9023751842
	    C    -0.0548379700  -1.2137695347   0.5085277860
	    C     0.0124681866   0.0132177109  -1.6568294504
	    H     0.1330270874   2.1669288461  -0.0198488148
	    H     0.0847984933   2.1493740761   2.4604768251
	    H    -0.0354762476  -0.0062811516   3.6872318435
	    H    -0.1271008540  -2.1516401443   2.4403131255
	    H    -0.1000155717  -2.1500136163  -0.0405591837
	    N     1.1415289049   0.1905221157  -2.3250203514
	    N    -1.1363149028  -0.2070149906  -2.2768908766
	    H    -1.2273439552  -0.2637885828  -3.2860132807
	    H    -1.9801726763  -0.3116101713  -1.7272557802
	    H     2.0039981726   0.3164006559  -1.8099156810
	    H     1.1937659518   0.2346528063  -3.3375648136
18
Geometry for iteration 5
	    C     0.0409198691   0.0077938109  -0.1739613717
	    C     0.0825129639   1.2255293336   0.5200891710
	    C     0.0547042500   1.2121701587   1.9139679707
	    C    -0.0167548674  -0.0019244339   2.6018305284
	    C    -0.0698378005  -1.2107561733   1.9024570437
	    C    -0.0549378445  -1.2138221786   0.5086053347
	    C     0.0122135507   0.0131514778  -1.6568064304
	    H     0.1326856550   2.1668390445  -0.0199407257
	    H     0.0849500542   2.1493878204   2.4603733887
	    H    -0.0348876336  -0.0062012005   3.6872832169
	    H    -0.1266917652  -2.1516230274   2.4404525426
	    H    -0.1000967403  -2.1501246312  -0.0404294118
	    N     1.1415152583   0.1897982600  -2.3246716001
	    N    -1.1364673641  -0.2061453664  -2.2773407467
	    H    -1.2270155231  -0.2636277647  -3.2865215196
	    H    -1.9804326101  -0.3118441038  -1.7279192166
	    H     2.0038040608   0.3167610220  -1.8092503219
	    H     1.1938164868   0.2346379520  -3.3372178523
18
Geometry for iteration 6
	    C     0.0409198691   0.0077938109  -0.1739613717
	    C     0.0825129639   1.2255293336   0.5200891710
	    C     0.0547042500   1.2121701587   1.9139679707
	    C    -0.0167548674  -0.0019244339   2.6018305284
	    C    -0.0698378005  -1.2107561733   1.9024570437
	    C    -0.0549378445  -1.2138221786   0.5086053347
	    C     0.0122135507   0.0131514778  -1.6568064304
	    H     0.1326856550   2.1668390445  -0.0199407257
	    H     0.0849500542   2.1493878204   2.4603733887
	    H    -0.0348876336  -0.0062012005   3.6872832169
	    H    -0.1266917652  -2.1516230274   2.4404525426
	    H    -0.1000967403  -2.1501246312  -0.0404294118
	    N     1.1415152583   0.1897982600  -2.3246716001
	    N    -1.1364673641  -0.2061453664  -2.2773407467
	    H    -1.2270155231  -0.2636277647  -3.2865215196
	    H    -1.9804326101  -0.3118441038  -1.7279192166
	    H     2.0038040608   0.3167610220  -1.8092503219
	    H     1.1938164868   0.2346379520  -3.3372178523
