18
Geometry for iteration 0
	    C     0.0000000000   0.0000000000  -0.1778640000
	    C     0.0366780000   1.2193740000   0.5241650000
	    C     0.0317650000   1.2131200000   1.9154440000
	    C     0.0000000000   0.0000000000   2.6101070000
	    C    -0.0317650000  -1.2131200000   1.9154440000
	    C    -0.0366780000  -1.2193750000   0.5241650000
	    C     0.0000000000   0.0000000000  -1.6447340000
	    H     0.0181700000   2.1647050000  -0.0108540000
	    H     0.0424020000   2.1528950000   2.4578860000
	    H     0.0000000000   0.0000000000   3.6957560000
	    H    -0.0424020000  -2.1528950000   2.4578860000
	    H    -0.0181700000  -2.1647050000  -0.0108530000
	    N    -0.7125900000  -0.9059500000  -2.3084610000
	    N     0.7125900000   0.9059500000  -2.3084600000
	    H     0.6734320000   1.0064700000  -3.3159970000
	    H     1.3771900000   1.4859700000  -1.8133160000
	    H    -0.2806340000  -1.4435220000  -3.0485380000
	    H    -1.6684280000  -1.1394030000  -2.0663040000
18
Geometry for iteration 1
	    C    -0.0331406173   0.0434648542  -0.1795253580
	    C     0.0446119513   1.2526302468   0.5459692623
	    C     0.0663137121   1.2233296846   1.9358582133
	    C     0.0143167462  -0.0042326358   2.6072103120
	    C    -0.0673404060  -1.2052414812   1.8914276719
	    C    -0.1023141368  -1.1878313458   0.5007453481
	    C    -0.0427555301   0.0439868691  -1.6406406553
	    H     0.0408767608   2.2077367020   0.0272793934
	    H     0.1105933484   2.1522499669   2.4966689575
	    H     0.0316537656  -0.0242675433   3.6929804032
	    H    -0.1007673336  -2.1539676172   2.4179048803
	    H    -0.1403140714  -2.1193648901  -0.0586539479
	    N    -0.6721660488  -0.9325556600  -2.3335726516
	    N     0.6844395732   0.9271422935  -2.3119003197
	    H     0.6501572492   0.9872707148  -3.3248228714
	    H     1.3698987386   1.5000958127  -1.8321873529
	    H    -0.2115125084  -1.4327171197  -3.0872693723
	    H    -1.5409911929  -1.3682148517  -1.9519999129
18
Geometry for iteration 2
	    C    -0.0511477004   0.0373251181  -0.1840868023
	    C     0.0550471780   1.2453931923   0.5374000929
	    C     0.0890628399   1.2195560241   1.9259912982
	    C     0.0131983807  -0.0040396964   2.6028573125
	    C    -0.1005512584  -1.2047098202   1.8935377724
	    C    -0.1432498788  -1.1904641097   0.5036871838
	    C    -0.0443282561   0.0425171119  -1.6427612132
	    H     0.0694457146   2.1976239810   0.0134862140
	    H     0.1593931165   2.1484348399   2.4832187829
	    H     0.0400416072  -0.0209701624   3.6882660148
	    H    -0.1482181439  -2.1498319079   2.4249460658
	    H    -0.1990894517  -2.1226122634  -0.0492617407
	    N    -0.6717897908  -0.9088986034  -2.3661436117
	    N     0.6695185258   0.9425455820  -2.3080539302
	    H     0.6081187598   1.0253737262  -3.3179342169
	    H     1.3464407643   1.5251302329  -1.8293649111
	    H    -0.1984441623  -1.3981206777  -3.1172910959
	    H    -1.3918882444  -1.4747385676  -1.8630212153
18
Geometry for iteration 3
	    C    -0.0481752412   0.0297969830  -0.1870829988
	    C     0.0520859706   1.2391436111   0.5318356379
	    C     0.0799911079   1.2180125982   1.9207047174
	    C     0.0101550846  -0.0025476265   2.6018420565
	    C    -0.0941522395  -1.2053304269   1.8961050414
	    C    -0.1301909880  -1.1953378015   0.5064897583
	    C    -0.0455776515   0.0400474803  -1.6462531900
	    H     0.0535807955   2.1905514132   0.0071280281
	    H     0.1403572699   2.1489825239   2.4747489972
	    H     0.0329433116  -0.0155162819   3.6872237522
	    H    -0.1384100387  -2.1488439355   2.4301132097
	    H    -0.1703674184  -2.1345741591  -0.0363341470
	    N    -0.7121917632  -0.8805344339  -2.3700212254
	    N     0.6889950382   0.9304939756  -2.3068494817
	    H     0.6210527370   1.0282638866  -3.3138327324
	    H     1.3690858440   1.5046454229  -1.8250706336
	    H    -0.2416079548  -1.3742826484  -3.1204558133
	    H    -1.3660138640  -1.4634565812  -1.8548189765
18
Geometry for iteration 4
	    C    -0.0437411127   0.0287881906  -0.1869394490
	    C     0.0547494665   1.2386930033   0.5311244291
	    C     0.0807762986   1.2177869358   1.9203785407
	    C     0.0084622425  -0.0025307321   2.6017015673
	    C    -0.0949967786  -1.2055628624   1.8955154115
	    C    -0.1301485012  -1.1956910201   0.5056420156
	    C    -0.0396946461   0.0369569898  -1.6460022713
	    H     0.0628137429   2.1894532249   0.0052075175
	    H     0.1437317099   2.1489202080   2.4739452813
	    H     0.0303089788  -0.0154782520   3.6871464232
	    H    -0.1406336775  -2.1493461516   2.4290027238
	    H    -0.1713017925  -2.1353472409  -0.0374345489
	    N    -0.7093098830  -0.8846706031  -2.3654412678
	    N     0.6893757497   0.9294550847  -2.3074967684
	    H     0.6208667227   1.0291204494  -3.3143782585
	    H     1.3524461885   1.5199199185  -1.8211867691
	    H    -0.2388078981  -1.3823502723  -3.1148056417
	    H    -1.3733368104  -1.4586028704  -1.8605069354
18
Geometry for iteration 5
	    C    -0.0430248232   0.0299150680  -0.1868536174
	    C     0.0516082071   1.2395997398   0.5322054825
	    C     0.0761501376   1.2179581586   1.9214608937
	    C     0.0076707803  -0.0029383374   2.6021005566
	    C    -0.0908785003  -1.2058683885   1.8951752028
	    C    -0.1242793816  -1.1952536906   0.5051835955
	    C    -0.0394996888   0.0384385433  -1.6463514133
	    H     0.0548501187   2.1910305348   0.0074845757
	    H     0.1341230285   2.1491258330   2.4755640124
	    H     0.0281874435  -0.0163895429   3.6875586610
	    H    -0.1334057770  -2.1501561363   2.4280586841
	    H    -0.1605580222  -2.1349847550  -0.0380730386
	    N    -0.7165656907  -0.8779111968  -2.3656493205
	    N     0.6970784333   0.9228036667  -2.3096713518
	    H     0.6272927963   1.0232323983  -3.3163716799
	    H     1.3626885758   1.5105623434  -1.8241528301
	    H    -0.2497743546  -1.3788955904  -3.1153261800
	    H    -1.3801032828  -1.4507546480  -1.8568702326
18
Geometry for iteration 6
	    C    -0.0431692264   0.0296811468  -0.1871214023
	    C     0.0528822168   1.2393054586   0.5315293073
	    C     0.0768069515   1.2178057542   1.9208069143
	    C     0.0074343752  -0.0029317548   2.6016002676
	    C    -0.0916730329  -1.2058736960   1.8948839823
	    C    -0.1250761377  -1.1954199835   0.5048572818
	    C    -0.0394501967   0.0382587582  -1.6466551220
	    H     0.0577014347   2.1905708783   0.0064915720
	    H     0.1354120916   2.1490023325   2.4747609357
	    H     0.0276894945  -0.0162257790   3.6870544161
	    H    -0.1348841746  -2.1500485900   2.4278869748
	    H    -0.1622162924  -2.1350918856  -0.0383733669
	    N    -0.7163034797  -0.8787121095  -2.3653875750
	    N     0.6968102476   0.9233421798  -2.3091938073
	    H     0.6261822815   1.0256857417  -3.3156085596
	    H     1.3599197800   1.5130532511  -1.8226630345
	    H    -0.2494001724  -1.3797408527  -3.1148603451
	    H    -1.3771061606  -1.4531468501  -1.8545364391
18
Geometry for iteration 7
	    C    -0.0431692264   0.0296811468  -0.1871214023
	    C     0.0528822168   1.2393054586   0.5315293073
	    C     0.0768069515   1.2178057542   1.9208069143
	    C     0.0074343752  -0.0029317548   2.6016002676
	    C    -0.0916730329  -1.2058736960   1.8948839823
	    C    -0.1250761377  -1.1954199835   0.5048572818
	    C    -0.0394501967   0.0382587582  -1.6466551220
	    H     0.0577014347   2.1905708783   0.0064915720
	    H     0.1354120916   2.1490023325   2.4747609357
	    H     0.0276894945  -0.0162257790   3.6870544161
	    H    -0.1348841746  -2.1500485900   2.4278869748
	    H    -0.1622162924  -2.1350918856  -0.0383733669
	    N    -0.7163034797  -0.8787121095  -2.3653875750
	    N     0.6968102476   0.9233421798  -2.3091938073
	    H     0.6261822815   1.0256857417  -3.3156085596
	    H     1.3599197800   1.5130532511  -1.8226630345
	    H    -0.2494001724  -1.3797408527  -3.1148603451
	    H    -1.3771061606  -1.4531468501  -1.8545364391
