18
Geometry for iteration 0
	    C     0.0000000000   0.0000000000  -0.1778640000
	    C     0.0366780000   1.2193740000   0.5241650000
	    C     0.0317650000   1.2131200000   1.9154440000
	    C     0.0000000000   0.0000000000   2.6101070000
	    C    -0.0317650000  -1.2131200000   1.9154440000
	    C    -0.0366780000  -1.2193750000   0.5241650000
	    C     0.0000000000   0.0000000000  -1.6447340000
	    H     0.0181700000   2.1647050000  -0.0108540000
	    H     0.0424020000   2.1528950000   2.4578860000
	    H     0.0000000000   0.0000000000   3.6957560000
	    H    -0.0424020000  -2.1528950000   2.4578860000
	    H    -0.0181700000  -2.1647050000  -0.0108530000
	    N    -0.7125900000  -0.9059500000  -2.3084610000
	    N     0.7125900000   0.9059500000  -2.3084600000
	    H     0.6734320000   1.0064700000  -3.3159970000
	    H     1.3771900000   1.4859700000  -1.8133160000
	    H    -0.5964620000  -1.0046550000  -3.3084890000
	    H    -1.3328720000  -1.5624650000  -1.8491080000
18
Geometry for iteration 1
	    C     0.0057884229  -0.0040768962  -0.1787245452
	    C     0.0372496784   1.2159547385   0.5224723764
	    C     0.0278271070   1.2113915529   1.9137591071
	    C    -0.0026929869  -0.0010167178   2.6095790835
	    C    -0.0288314924  -1.2149340914   1.9160686867
	    C    -0.0297825057  -1.2225113279   0.5248823989
	    C     0.0105021656  -0.0057248730  -1.6458831631
	    H     0.0177228071   2.1606514627  -0.0136231577
	    H     0.0339961249   2.1517707422   2.4552651888
	    H    -0.0062278178   0.0000470321   3.6952275429
	    H    -0.0386124072  -2.1541656646   2.4594912509
	    H    -0.0067499010  -2.1689703241  -0.0080273744
	    N    -0.7036225152  -0.9047316033  -2.3169641783
	    N     0.7180113254   0.9054063549  -2.3079031367
	    H     0.6763935453   1.0122408404  -3.3148581224
	    H     1.3726478944   1.4935166532  -1.8090430815
	    H    -0.6135016725  -1.0351949482  -3.3192828169
	    H    -1.3488297725  -1.5143339305  -1.8297190589
18
Geometry for iteration 0
	    C     0.0057884229  -0.0040768962  -0.1787245452
	    C     0.0372496784   1.2159547385   0.5224723764
	    C     0.0278271070   1.2113915529   1.9137591071
	    C    -0.0026929869  -0.0010167178   2.6095790835
	    C    -0.0288314924  -1.2149340914   1.9160686867
	    C    -0.0297825057  -1.2225113279   0.5248823989
	    C     0.0105021656  -0.0057248730  -1.6458831631
	    H     0.0177228071   2.1606514627  -0.0136231577
	    H     0.0339961249   2.1517707422   2.4552651888
	    H    -0.0062278178   0.0000470321   3.6952275429
	    H    -0.0386124072  -2.1541656646   2.4594912509
	    H    -0.0067499010  -2.1689703241  -0.0080273744
	    N    -0.7036225152  -0.9047316033  -2.3169641783
	    N     0.7180113254   0.9054063549  -2.3079031367
	    H     0.6763935453   1.0122408404  -3.3148581224
	    H     1.3726478944   1.4935166532  -1.8090430815
	    H    -0.6135016725  -1.0351949482  -3.3192828169
	    H    -1.3488297725  -1.5143339305  -1.8297190589
18
Geometry for iteration 1
	    C     0.0018347952   0.0013432113  -0.1796986341
	    C     0.0317477063   1.2199064336   0.5241598629
	    C     0.0259212334   1.2115217813   1.9153646215
	    C    -0.0012743795  -0.0028464014   2.6081723640
	    C    -0.0276762482  -1.2150945156   1.9117281997
	    C    -0.0311453363  -1.2190810166   0.5204709983
	    C     0.0041617120   0.0018163754  -1.6461712039
	    H     0.0086823355   2.1660404223  -0.0092816838
	    H     0.0316261329   2.1505211089   2.4592260770
	    H    -0.0025883962  -0.0045009303   3.6938316901
	    H    -0.0355284022  -2.1557145577   2.4527599649
	    H    -0.0093310966  -2.1637506260  -0.0157397456
	    N    -0.7001120686  -0.9089113948  -2.3122556031
	    N     0.7214293556   0.9050858072  -2.3091676219
	    H     0.6843801870   1.0053386472  -3.3168281615
	    H     1.3827943628   1.4875273365  -1.8124724677
	    H    -0.6166748828  -1.0443387550  -3.3130630625
	    H    -1.3469590104  -1.5095439263  -1.8183185945
18
Geometry for iteration 2
	    C     0.0021377444  -0.0014332297  -0.1798888122
	    C     0.0314670696   1.2178956695   0.5225762886
	    C     0.0249579159   1.2112089738   1.9137790956
	    C    -0.0018419414  -0.0023542797   2.6079996287
	    C    -0.0265980591  -1.2154532540   1.9129923553
	    C    -0.0295964035  -1.2212224668   0.5217100874
	    C     0.0073343656  -0.0012963131  -1.6463952675
	    H     0.0093450396   2.1632174235  -0.0123702219
	    H     0.0303311242   2.1508286975   2.4565675815
	    H    -0.0031811740  -0.0027108491   3.6936569430
	    H    -0.0330937035  -2.1554167351   2.4551746013
	    H    -0.0052073217  -2.1664871739  -0.0132304529
	    N    -0.6996531345  -0.9088204430  -2.3139085903
	    N     0.7223621365   0.9051350084  -2.3072435896
	    H     0.6833110533   1.0083308370  -3.3145095248
	    H     1.3815744246   1.4889114699  -1.8093127236
	    H    -0.6160061559  -1.0459342732  -3.3141214824
	    H    -1.3563549803  -1.4990800619  -1.8207589161
18
Geometry for iteration 3
	    C     0.0028464483  -0.0012902481  -0.1796634546
	    C     0.0321957311   1.2180034935   0.5230129160
	    C     0.0252733992   1.2112544477   1.9142141838
	    C    -0.0017199408  -0.0023969874   2.6082576471
	    C    -0.0267610157  -1.2154003659   1.9131051356
	    C    -0.0295647365  -1.2211179693   0.5218169178
	    C     0.0075553379  -0.0012109223  -1.6463106239
	    H     0.0098518882   2.1633098683  -0.0119278012
	    H     0.0303293716   2.1507898499   2.4571649326
	    H    -0.0035322611  -0.0028663963   3.6939140418
	    H    -0.0339890182  -2.1554026383   2.4552145957
	    H    -0.0061916589  -2.1662024402  -0.0134307249
	    N    -0.6984230453  -0.9095523762  -2.3138207271
	    N     0.7213867107   0.9054406963  -2.3078268337
	    H     0.6813352551   1.0084340595  -3.3151169279
	    H     1.3814618556   1.4887545824  -1.8105203737
	    H    -0.6144677100  -1.0461319032  -3.3143284875
	    H    -1.3562986112  -1.4990957505  -1.8210374159
18
Geometry for iteration 4
	    C     0.0028464483  -0.0012902481  -0.1796634546
	    C     0.0321957311   1.2180034935   0.5230129160
	    C     0.0252733992   1.2112544477   1.9142141838
	    C    -0.0017199408  -0.0023969874   2.6082576471
	    C    -0.0267610157  -1.2154003659   1.9131051356
	    C    -0.0295647365  -1.2211179693   0.5218169178
	    C     0.0075553379  -0.0012109223  -1.6463106239
	    H     0.0098518882   2.1633098683  -0.0119278012
	    H     0.0303293716   2.1507898499   2.4571649326
	    H    -0.0035322611  -0.0028663963   3.6939140418
	    H    -0.0339890182  -2.1554026383   2.4552145957
	    H    -0.0061916589  -2.1662024402  -0.0134307249
	    N    -0.6984230453  -0.9095523762  -2.3138207271
	    N     0.7213867107   0.9054406963  -2.3078268337
	    H     0.6813352551   1.0084340595  -3.3151169279
	    H     1.3814618556   1.4887545824  -1.8105203737
	    H    -0.6144677100  -1.0461319032  -3.3143284875
	    H    -1.3562986112  -1.4990957505  -1.8210374159
