18
Geometry for iteration 0
	    C     0.0000000000   0.0000000000  -0.1778640000
	    C     0.0366780000   1.2193740000   0.5241650000
	    C     0.0317650000   1.2131200000   1.9154440000
	    C     0.0000000000   0.0000000000   2.6101070000
	    C    -0.0317650000  -1.2131200000   1.9154440000
	    C    -0.0366780000  -1.2193750000   0.5241650000
	    C     0.0000000000   0.0000000000  -1.6447340000
	    H     0.0181700000   2.1647050000  -0.0108540000
	    H     0.0424020000   2.1528950000   2.4578860000
	    H     0.0000000000   0.0000000000   3.6957560000
	    H    -0.0424020000  -2.1528950000   2.4578860000
	    H    -0.0181700000  -2.1647050000  -0.0108530000
	    N    -0.7125900000  -0.9059500000  -2.3084610000
	    N     0.7125900000   0.9059500000  -2.3084600000
	    H     0.6734320000   1.0064700000  -3.3159970000
	    H     1.3771900000   1.4859700000  -1.8133160000
	    H    -1.6330240000  -1.1642610000  -1.9777630000
	    H    -0.4052860000  -1.3146070000  -3.1832920000
18
Geometry for iteration 1
	    C    -0.0290966940   0.0288463019  -0.1701487002
	    C     0.0348899878   1.2433650523   0.5444949357
	    C     0.0578775095   1.2242434773   1.9347100889
	    C     0.0179464928   0.0023215044   2.6159808754
	    C    -0.0518862625  -1.2041120378   1.9097486069
	    C    -0.0856968319  -1.1973971582   0.5188029004
	    C    -0.0374070348   0.0227821293  -1.6318034374
	    H     0.0217787584   2.1941174671   0.0184994263
	    H     0.0935162304   2.1576690738   2.4878137011
	    H     0.0358298593  -0.0090202927   3.7017359639
	    H    -0.0759612870  -2.1487928307   2.4434139687
	    H    -0.1137069976  -2.1328895194  -0.0335146449
	    N    -0.6535213990  -0.9727522222  -2.2997792118
	    N     0.6865786372   0.9071445610  -2.3087842270
	    H     0.6570276524   0.9653090881  -3.3215800277
	    H     1.3700072649   1.4823516235  -1.8302355926
	    H    -1.5429096166  -1.3388010486  -1.9662172917
	    H    -0.3729542691  -1.2108141692  -3.2638783341
18
Geometry for iteration 2
	    C    -0.0212569021   0.0029915035  -0.1668668413
	    C     0.0432901196   1.2255581681   0.5327999041
	    C     0.0595913725   1.2239800605   1.9224170605
	    C     0.0091846425   0.0110787539   2.6198238929
	    C    -0.0615331085  -1.2038354331   1.9301058139
	    C    -0.0842392128  -1.2152130660   0.5392533385
	    C    -0.0060594322  -0.0140584514  -1.6262059358
	    H     0.0386726664   2.1687393653  -0.0073008874
	    H     0.0979904537   2.1638253438   2.4637004503
	    H     0.0244037284   0.0136278710   3.7056306330
	    H    -0.0884916080  -2.1408374481   2.4770679932
	    H    -0.1040190213  -2.1565465032  -0.0003625857
	    N    -0.6084366158  -1.0084400354  -2.3033928381
	    N     0.6871521291   0.8995695473  -2.2993662289
	    H     0.6355854969   0.9814516622  -3.3092889811
	    H     1.3517089785   1.4959332197  -1.8201182651
	    H    -1.5003624387  -1.3596199888  -1.9740158567
	    H    -0.4608692483  -1.0746335695  -3.3346216664
18
Geometry for iteration 3
	    C    -0.0136279876   0.0052576621  -0.1721066815
	    C     0.0490332220   1.2260043895   0.5297037014
	    C     0.0559102569   1.2216228307   1.9193914577
	    C     0.0033109452   0.0083200322   2.6148618571
	    C    -0.0634431540  -1.2049775203   1.9228820393
	    C    -0.0766921108  -1.2136739135   0.5322495111
	    C    -0.0078042513  -0.0061535508  -1.6316508441
	    H     0.0409504057   2.1707080286  -0.0070442559
	    H     0.0890430044   2.1605503445   2.4622037602
	    H     0.0123872884   0.0094200409   3.7005744364
	    H    -0.0940376858  -2.1427510352   2.4680221109
	    H    -0.0907279834  -2.1549545589  -0.0076212288
	    N    -0.6044049635  -1.0095254783  -2.2932234956
	    N     0.6925726377   0.9024871794  -2.3048585985
	    H     0.6517160007   0.9839243396  -3.3141905803
	    H     1.3552714823   1.4965533315  -1.8224192544
	    H    -1.4866037379  -1.3629265075  -1.9432031567
	    H    -0.5005413690  -1.0763146145  -3.3043117783
18
Geometry for iteration 4
	    C    -0.0112967096   0.0028656279  -0.1725249167
	    C     0.0443110680   1.2242898650   0.5290684335
	    C     0.0505626389   1.2215158846   1.9190481284
	    C     0.0015391071   0.0089554612   2.6154487535
	    C    -0.0582377523  -1.2051876792   1.9237117892
	    C    -0.0707376847  -1.2152970101   0.5330640505
	    C    -0.0056655279  -0.0075660312  -1.6336827259
	    H     0.0346683034   2.1690834639  -0.0074858714
	    H     0.0809707784   2.1611996464   2.4608782062
	    H     0.0093750457   0.0110820650   3.7011654537
	    H    -0.0843362020  -2.1429559693   2.4691051076
	    H    -0.0763196548  -2.1580193438  -0.0049840131
	    N    -0.6123801351  -1.0043448691  -2.2968173343
	    N     0.6993990683   0.8976816010  -2.3050000223
	    H     0.6659018128   0.9775823558  -3.3148577760
	    H     1.3590718370   1.4921006564  -1.8189130739
	    H    -1.4991402912  -1.3469808328  -1.9439396695
	    H    -0.5153737019  -1.0724338917  -3.3040255196
18
Geometry for iteration 5
	    C    -0.0105812121   0.0030097225  -0.1727314778
	    C     0.0466956814   1.2242730186   0.5284867175
	    C     0.0517465426   1.2212495962   1.9185271031
	    C     0.0014346666   0.0086754850   2.6148597065
	    C    -0.0593337007  -1.2052824066   1.9229748283
	    C    -0.0709569994  -1.2152157931   0.5323022804
	    C    -0.0055871773  -0.0071245524  -1.6337564833
	    H     0.0382346753   2.1691161990  -0.0081008562
	    H     0.0823051471   2.1609596172   2.4602602847
	    H     0.0081972328   0.0105820234   3.7005747726
	    H    -0.0873658440  -2.1431072018   2.4681774477
	    H    -0.0790277855  -2.1576696827  -0.0061674426
	    N    -0.6104028748  -1.0061289992  -2.2947973535
	    N     0.6978337832   0.8991645978  -2.3050044377
	    H     0.6659868494   0.9784340360  -3.3149590941
	    H     1.3543875359   1.4965029685  -1.8181586447
	    H    -1.4956537119  -1.3502616583  -1.9399524482
	    H    -0.5156008086  -1.0736059703  -3.3032759029
18
Geometry for iteration 6
	    C    -0.0106702594   0.0032993385  -0.1726493771
	    C     0.0457606835   1.2244980363   0.5287392010
	    C     0.0509340006   1.2212701019   1.9187893690
	    C     0.0014806805   0.0085764083   2.6149464424
	    C    -0.0586874849  -1.2052819394   1.9229132959
	    C    -0.0704906455  -1.2150280345   0.5322181329
	    C    -0.0053907504  -0.0070018769  -1.6338318421
	    H     0.0362646089   2.1695033396  -0.0075269448
	    H     0.0807748743   2.1609386860   2.4606287278
	    H     0.0084673352   0.0102875712   3.7006544237
	    H    -0.0858524547  -2.1432037118   2.4679920675
	    H    -0.0780346820  -2.1573723656  -0.0063751070
	    N    -0.6113327874  -1.0055088165  -2.2945892883
	    N     0.6988663486   0.8982981708  -2.3053960240
	    H     0.6670649046   0.9772285301  -3.3153663406
	    H     1.3566620660   1.4945916943  -1.8189715916
	    H    -1.4969194445  -1.3484598233  -1.9397453384
	    H    -0.5165849936  -1.0730643090  -3.3031708062
18
Geometry for iteration 7
	    C    -0.0106702594   0.0032993385  -0.1726493771
	    C     0.0457606835   1.2244980363   0.5287392010
	    C     0.0509340006   1.2212701019   1.9187893690
	    C     0.0014806805   0.0085764083   2.6149464424
	    C    -0.0586874849  -1.2052819394   1.9229132959
	    C    -0.0704906455  -1.2150280345   0.5322181329
	    C    -0.0053907504  -0.0070018769  -1.6338318421
	    H     0.0362646089   2.1695033396  -0.0075269448
	    H     0.0807748743   2.1609386860   2.4606287278
	    H     0.0084673352   0.0102875712   3.7006544237
	    H    -0.0858524547  -2.1432037118   2.4679920675
	    H    -0.0780346820  -2.1573723656  -0.0063751070
	    N    -0.6113327874  -1.0055088165  -2.2945892883
	    N     0.6988663486   0.8982981708  -2.3053960240
	    H     0.6670649046   0.9772285301  -3.3153663406
	    H     1.3566620660   1.4945916943  -1.8189715916
	    H    -1.4969194445  -1.3484598233  -1.9397453384
	    H    -0.5165849936  -1.0730643090  -3.3031708062
