18
Geometry for iteration 0
	    C     0.0000000000   0.0000000000  -0.1778640000
	    C     0.0366780000   1.2193740000   0.5241650000
	    C     0.0317650000   1.2131200000   1.9154440000
	    C     0.0000000000   0.0000000000   2.6101070000
	    C    -0.0317650000  -1.2131200000   1.9154440000
	    C    -0.0366780000  -1.2193750000   0.5241650000
	    C     0.0000000000   0.0000000000  -1.6447340000
	    H     0.0181700000   2.1647050000  -0.0108540000
	    H     0.0424020000   2.1528950000   2.4578860000
	    H     0.0000000000   0.0000000000   3.6957560000
	    H    -0.0424020000  -2.1528950000   2.4578860000
	    H    -0.0181700000  -2.1647050000  -0.0108530000
	    N     1.1285770000  -0.2341870000  -2.3084610000
	    N    -1.1285770000   0.2341870000  -2.3084610000
	    H    -1.2011130000   0.1543370000  -3.3159970000
	    H    -1.9439910000   0.5706620000  -1.8133170000
	    H     1.9439910000  -0.5706620000  -1.8133170000
	    H     1.2011130000  -0.1543370000  -3.3159970000
18
Geometry for iteration 1
	    C    -0.0087232498  -0.0030141932  -0.1746850270
	    C     0.0211541085   1.2176096201   0.5160107910
	    C     0.0306685850   1.2112054530   1.9095869868
	    C     0.0025408851   0.0002217154   2.6063101399
	    C    -0.0281816483  -1.2124602573   1.9126715358
	    C    -0.0269089972  -1.2221883922   0.5191396474
	    C    -0.0040434166  -0.0050371891  -1.6531835363
	    H     0.0487249999   2.1590873337  -0.0282102301
	    H     0.0656906710   2.1520538868   2.4498177373
	    H     0.0061498334   0.0015073241   3.6919341723
	    H    -0.0572526243  -2.1520506617   2.4551992095
	    H    -0.0534196378  -2.1648485908  -0.0229555525
	    N     1.1294955449  -0.2362511026  -2.3002418502
	    N    -1.1303256962   0.2389095974  -2.3080889173
	    H    -1.1943139392   0.2419302063  -3.3243584483
	    H    -1.9688469329   0.4783790868  -1.7824322851
	    H     1.9658994298  -0.4745263188  -1.7702874747
	    H     1.2016920849  -0.2305285180  -3.3152288987
18
Geometry for iteration 2
	    C    -0.0305500521  -0.0073621078  -0.1741217381
	    C     0.0095815790   1.2158311812   0.5092011278
	    C     0.0276209353   1.2108919390   1.9034416974
	    C     0.0107699659   0.0002984422   2.6011786818
	    C    -0.0176499332  -1.2144237231   1.9111476211
	    C    -0.0308825439  -1.2270967266   0.5168599385
	    C    -0.0126348093  -0.0110820129  -1.6587182320
	    H     0.0330632656   2.1538229264  -0.0387207805
	    H     0.0583694551   2.1527372866   2.4419987386
	    H     0.0238007350   0.0034533639   3.6866642873
	    H    -0.0279494770  -2.1533642598   2.4558205335
	    H    -0.0542941679  -2.1684527240  -0.0252051675
	    N     1.1262252292  -0.2586674452  -2.2860307693
	    N    -1.1277507701   0.2691051339  -2.3148982890
	    H    -1.1842057376   0.3348232711  -3.3285632127
	    H    -1.9752606290   0.4466380442  -1.7848876608
	    H     1.9588999599  -0.4438585801  -1.7361380322
	    H     1.2128469950  -0.3032950090  -3.2980307442
18
Geometry for iteration 3
	    C    -0.0416907807  -0.0091971655  -0.1738050064
	    C    -0.0001263666   1.2146793077   0.5092849366
	    C     0.0293164703   1.2104877378   1.9032763441
	    C     0.0169439555   0.0001737786   2.6015357239
	    C    -0.0145879229  -1.2151811969   1.9126903391
	    C    -0.0306206198  -1.2286296726   0.5185907117
	    C    -0.0167113962  -0.0119404927  -1.6578087428
	    H     0.0154148262   2.1524355783  -0.0388461957
	    H     0.0642126630   2.1521938092   2.4416833545
	    H     0.0355836328   0.0040963672   3.6869837296
	    H    -0.0223535174  -2.1532018437   2.4585471443
	    H    -0.0515916550  -2.1704549588  -0.0222956363
	    N     1.1237199419  -0.2632794765  -2.2808182340
	    N    -1.1244307554   0.2798727155  -2.3212095901
	    H    -1.1722779043   0.3485727988  -3.3325718460
	    H    -1.9778476508   0.4470274875  -1.8025229459
	    H     1.9534803880  -0.4484374531  -1.7310848735
	    H     1.2135666914  -0.3092183208  -3.2906312131
18
Geometry for iteration 4
	    C    -0.0467056558  -0.0109934999  -0.1738528341
	    C    -0.0038231204   1.2133322853   0.5087469223
	    C     0.0273952845   1.2102122577   1.9025303445
	    C     0.0196740890   0.0002774098   2.6015644656
	    C    -0.0105574991  -1.2156586421   1.9135291309
	    C    -0.0311167191  -1.2298269800   0.5196438328
	    C    -0.0189696792  -0.0131710047  -1.6569269314
	    H     0.0072495316   2.1508380874  -0.0399532672
	    H     0.0622033194   2.1522480550   2.4403368121
	    H     0.0412903110   0.0049454521   3.6869607402
	    H    -0.0152210083  -2.1532488264   2.4601039580
	    H    -0.0505487046  -2.1721055948  -0.0206204359
	    N     1.1223073203  -0.2666638186  -2.2779653683
	    N    -1.1225439193   0.2873298996  -2.3235490487
	    H    -1.1662131070   0.3567405074  -3.3349060198
	    H    -1.9790195718   0.4521432728  -1.8094618271
	    H     1.9509958205  -0.4547501395  -1.7275759170
	    H     1.2136033083  -0.3116497212  -3.2876065569
18
Geometry for iteration 5
	    C    -0.0482300699  -0.0112674074  -0.1739599109
	    C    -0.0051188025   1.2131306734   0.5086974031
	    C     0.0278480638   1.2101303507   1.9023862596
	    C     0.0205102493   0.0002597739   2.6015681034
	    C    -0.0103582898  -1.2157177273   1.9136050010
	    C    -0.0312603794  -1.2299477011   0.5197777582
	    C    -0.0194617995  -0.0127280364  -1.6567128175
	    H     0.0055126742   2.1505781388  -0.0401312843
	    H     0.0628413493   2.1522392609   2.4400619848
	    H     0.0429977158   0.0050017411   3.6869363124
	    H    -0.0142199205  -2.1532976238   2.4602223733
	    H    -0.0507739834  -2.1722825557  -0.0204387301
	    N     1.1222434452  -0.2665748195  -2.2770438923
	    N    -1.1221691996   0.2889514810  -2.3242634468
	    H    -1.1649888612   0.3579131953  -3.3358812694
	    H    -1.9798244867   0.4515834441  -1.8110993654
	    H     1.9503919028  -0.4559487147  -1.7259676057
	    H     1.2140603921  -0.3120244733  -3.2867588735
18
Geometry for iteration 6
	    C    -0.0482300699  -0.0112674074  -0.1739599109
	    C    -0.0051188025   1.2131306734   0.5086974031
	    C     0.0278480638   1.2101303507   1.9023862596
	    C     0.0205102493   0.0002597739   2.6015681034
	    C    -0.0103582898  -1.2157177273   1.9136050010
	    C    -0.0312603794  -1.2299477011   0.5197777582
	    C    -0.0194617995  -0.0127280364  -1.6567128175
	    H     0.0055126742   2.1505781388  -0.0401312843
	    H     0.0628413493   2.1522392609   2.4400619848
	    H     0.0429977158   0.0050017411   3.6869363124
	    H    -0.0142199205  -2.1532976238   2.4602223733
	    H    -0.0507739834  -2.1722825557  -0.0204387301
	    N     1.1222434452  -0.2665748195  -2.2770438923
	    N    -1.1221691996   0.2889514810  -2.3242634468
	    H    -1.1649888612   0.3579131953  -3.3358812694
	    H    -1.9798244867   0.4515834441  -1.8110993654
	    H     1.9503919028  -0.4559487147  -1.7259676057
	    H     1.2140603921  -0.3120244733  -3.2867588735
