18
Geometry for iteration 0
	    C     0.0000000000   0.0000000000  -0.1778640000
	    C     0.0366780000   1.2193740000   0.5241650000
	    C     0.0317650000   1.2131200000   1.9154440000
	    C     0.0000000000   0.0000000000   2.6101070000
	    C    -0.0317650000  -1.2131200000   1.9154440000
	    C    -0.0366780000  -1.2193750000   0.5241650000
	    C     0.0000000000   0.0000000000  -1.6447340000
	    H     0.0181700000   2.1647050000  -0.0108540000
	    H     0.0424020000   2.1528950000   2.4578860000
	    H     0.0000000000   0.0000000000   3.6957560000
	    H    -0.0424020000  -2.1528950000   2.4578860000
	    H    -0.0181700000  -2.1647050000  -0.0108530000
	    N    -0.7671010000  -0.8602830000  -2.3084610000
	    N     0.7671010000   0.8602830000  -2.3084600000
	    H     0.7342160000   0.9630260000  -3.3159970000
	    H     1.4662040000   1.3982150000  -1.8133160000
	    H    -1.4662040000  -1.3982150000  -1.8133170000
	    H    -0.7342160000  -0.9630250000  -3.3159970000
18
Geometry for iteration 1
	    C     0.0178105888  -0.0040547500  -0.1783587858
	    C     0.0536767715   1.2166125685   0.5204178476
	    C     0.0387649049   1.2119297381   1.9118614273
	    C    -0.0047375792  -0.0003420620   2.6077108112
	    C    -0.0421588154  -1.2143177011   1.9145582516
	    C    -0.0396736880  -1.2225461289   0.5230688045
	    C     0.0115503289  -0.0054612552  -1.6447581471
	    H     0.0493860734   2.1599897528  -0.0187267943
	    H     0.0518287237   2.1523035627   2.4532504561
	    H    -0.0121959411   0.0010599877   3.6933746866
	    H    -0.0666835453  -2.1532444407   2.4582296629
	    H    -0.0358897141  -2.1674528651  -0.0133907642
	    N    -0.7565691635  -0.8697849276  -2.3012720740
	    N     0.7554830106   0.8741046827  -2.3094696324
	    H     0.7119616075   0.9845368997  -3.3160465399
	    H     1.4428345759   1.4274291415  -1.8140189645
	    H    -1.4385765868  -1.4207940609  -1.7957604916
	    H    -0.7368115518  -0.9699681422  -3.3096697541
18
Geometry for iteration 2
	    C     0.0142545553  -0.0016530725  -0.1779698124
	    C     0.0478222601   1.2184088825   0.5222302937
	    C     0.0326718376   1.2124697942   1.9136496201
	    C    -0.0071782403  -0.0003800068   2.6083786857
	    C    -0.0393850680  -1.2138627099   1.9142722716
	    C    -0.0365447568  -1.2208424955   0.5228258232
	    C     0.0072413589  -0.0013457150  -1.6451061336
	    H     0.0393646982   2.1623952636  -0.0154391029
	    H     0.0416666560   2.1523718906   2.4559412361
	    H    -0.0143003891   0.0001167166   3.6940097278
	    H    -0.0585039225  -2.1532301999   2.4572389894
	    H    -0.0254156915  -2.1653333884  -0.0140040446
	    N    -0.7589450555  -0.8661277801  -2.3030920022
	    N     0.7597202041   0.8701905892  -2.3100476992
	    H     0.7210833612   0.9767468176  -3.3171320995
	    H     1.4517651118   1.4171818286  -1.8145633065
	    H    -1.4410680830  -1.4178431648  -1.7992068158
	    H    -0.7342488365  -0.9692632500  -3.3109856309
18
Geometry for iteration 3
	    C     0.0127919442  -0.0026610090  -0.1778993450
	    C     0.0476693880   1.2177055811   0.5217013868
	    C     0.0332002160   1.2124482918   1.9131562168
	    C    -0.0072230141  -0.0000017388   2.6084277948
	    C    -0.0395999534  -1.2138468794   1.9149588167
	    C    -0.0371740693  -1.2215250634   0.5235350184
	    C     0.0076043768  -0.0024287438  -1.6453302514
	    H     0.0401263861   2.1614541508  -0.0163389502
	    H     0.0430567003   2.1525787518   2.4550415158
	    H    -0.0140952196   0.0010380030   3.6940568772
	    H    -0.0580287455  -2.1529066136   2.4584618579
	    H    -0.0245577089  -2.1663378335  -0.0126677829
	    N    -0.7591941702  -0.8657598252  -2.3043806115
	    N     0.7595365079   0.8703159008  -2.3092230066
	    H     0.7212304872   0.9777619658  -3.3162028552
	    H     1.4500926889   1.4182615932  -1.8127765821
	    H    -1.4414221990  -1.4179039798  -1.8012137446
	    H    -0.7340136155  -0.9681925517  -3.3123063548
18
Geometry for iteration 4
	    C     0.0127919442  -0.0026610090  -0.1778993450
	    C     0.0476693880   1.2177055811   0.5217013868
	    C     0.0332002160   1.2124482918   1.9131562168
	    C    -0.0072230141  -0.0000017388   2.6084277948
	    C    -0.0395999534  -1.2138468794   1.9149588167
	    C    -0.0371740693  -1.2215250634   0.5235350184
	    C     0.0076043768  -0.0024287438  -1.6453302514
	    H     0.0401263861   2.1614541508  -0.0163389502
	    H     0.0430567003   2.1525787518   2.4550415158
	    H    -0.0140952196   0.0010380030   3.6940568772
	    H    -0.0580287455  -2.1529066136   2.4584618579
	    H    -0.0245577089  -2.1663378335  -0.0126677829
	    N    -0.7591941702  -0.8657598252  -2.3043806115
	    N     0.7595365079   0.8703159008  -2.3092230066
	    H     0.7212304872   0.9777619658  -3.3162028552
	    H     1.4500926889   1.4182615932  -1.8127765821
	    H    -1.4414221990  -1.4179039798  -1.8012137446
	    H    -0.7340136155  -0.9681925517  -3.3123063548
