18
Geometry for iteration 0
	    C     0.0000000000   0.0000000000  -0.1778640000
	    C     0.0366780000   1.2193740000   0.5241650000
	    C     0.0317650000   1.2131200000   1.9154440000
	    C     0.0000000000   0.0000000000   2.6101070000
	    C    -0.0317650000  -1.2131200000   1.9154440000
	    C    -0.0366780000  -1.2193750000   0.5241650000
	    C     0.0000000000   0.0000000000  -1.6447340000
	    H     0.0181700000   2.1647050000  -0.0108540000
	    H     0.0424020000   2.1528950000   2.4578860000
	    H     0.0000000000   0.0000000000   3.6957560000
	    H    -0.0424020000  -2.1528950000   2.4578860000
	    H    -0.0181700000  -2.1647050000  -0.0108530000
	    N    -0.7125900000  -0.9059500000  -2.3084610000
	    N     0.7125900000   0.9059500000  -2.3084600000
	    H     0.6734320000   1.0064700000  -3.3159970000
	    H     1.3771900000   1.4859700000  -1.8133160000
	    H    -1.4443470000  -0.6076930000  -2.9400130000
	    H    -0.5168490000  -1.8992320000  -2.2655360000
18
Geometry for iteration 1
	    C     0.0420184704  -0.0287319233  -0.1794073994
	    C     0.1119232692   1.1985415210   0.5127765966
	    C     0.0762600599   1.2093134887   1.9038047151
	    C     0.0002479134   0.0053069177   2.6114420928
	    C    -0.0575238656  -1.2159064482   1.9294654339
	    C    -0.0498001103  -1.2385817482   0.5403068207
	    C     0.0483062023  -0.0363959218  -1.6459662004
	    H     0.1318845451   2.1392724731  -0.0317825592
	    H     0.1015573209   2.1552931653   2.4353161259
	    H    -0.0204452378   0.0178843469   3.6970861618
	    H    -0.1118317194  -2.1488159031   2.4829385336
	    H    -0.0805640546  -2.1931804451   0.0219095874
	    N    -0.6594221671  -0.9479667689  -2.3754712151
	    N     0.6624615473   0.9576049686  -2.2798596764
	    H     0.6138628803   1.0509140206  -3.2894573023
	    H     1.2027973355   1.6697417112  -1.7672513953
	    H    -1.3782294749  -0.6589918710  -3.0278944888
	    H    -0.5440769146  -1.9497875834  -2.2331908309
18
Geometry for iteration 2
	    C     0.0832736972  -0.0168472147  -0.1834578754
	    C     0.1612983229   1.2002218784   0.5312356602
	    C     0.0986044822   1.1944751705   1.9206839554
	    C    -0.0074557054  -0.0148992380   2.6140961674
	    C    -0.0791665077  -1.2252898297   1.9155484819
	    C    -0.0522896338  -1.2285008228   0.5272859610
	    C     0.1005380135  -0.0262390544  -1.6511177193
	    H     0.1946128247   2.1547413597   0.0134166048
	    H     0.1234994182   2.1343792897   2.4627145620
	    H    -0.0490237249  -0.0143019282   3.6992873303
	    H    -0.1659129422  -2.1632371995   2.4562403918
	    H    -0.1159755815  -2.1766006010   0.0007073396
	    N    -0.5626212403  -0.9662688793  -2.4068237124
	    N     0.6272727453   0.9882705427  -2.3222359352
	    H     0.5911239004   1.0016561206  -3.3403726294
	    H     1.0617551473   1.7981929148  -1.8505711034
	    H    -1.2827762624  -0.7058153611  -3.0688372337
	    H    -0.6373309535  -1.9484231478  -2.0130352456
18
Geometry for iteration 0
	    C     0.0420184704  -0.0287319233  -0.1794073994
	    C     0.1119232692   1.1985415210   0.5127765966
	    C     0.0762600599   1.2093134887   1.9038047151
	    C     0.0002479134   0.0053069177   2.6114420928
	    C    -0.0575238656  -1.2159064482   1.9294654339
	    C    -0.0498001103  -1.2385817482   0.5403068207
	    C     0.0483062023  -0.0363959218  -1.6459662004
	    H     0.1318845451   2.1392724731  -0.0317825592
	    H     0.1015573209   2.1552931653   2.4353161259
	    H    -0.0204452378   0.0178843469   3.6970861618
	    H    -0.1118317194  -2.1488159031   2.4829385336
	    H    -0.0805640546  -2.1931804451   0.0219095874
	    N    -0.6594221671  -0.9479667689  -2.3754712151
	    N     0.6624615473   0.9576049686  -2.2798596764
	    H     0.6138628803   1.0509140206  -3.2894573023
	    H     1.2027973355   1.6697417112  -1.7672513953
	    H    -1.3782294749  -0.6589918710  -3.0278944888
	    H    -0.5440769146  -1.9497875834  -2.2331908309
18
Geometry for iteration 1
	    C     0.0560335979  -0.0147616384  -0.1785415224
	    C     0.1237801244   1.2045348384   0.5294930823
	    C     0.0770554871   1.2018160311   1.9194260796
	    C    -0.0072988769  -0.0071076746   2.6159251402
	    C    -0.0649497183  -1.2199504670   1.9214474039
	    C    -0.0475566650  -1.2273127512   0.5322669255
	    C     0.0693025117  -0.0247998716  -1.6459917418
	    H     0.1470282644   2.1545640261   0.0036354540
	    H     0.0992666700   2.1428398627   2.4594687261
	    H    -0.0367178631  -0.0043002149   3.7012441630
	    H    -0.1280303368  -2.1573300224   2.4647993066
	    H    -0.0836183589  -2.1760985378   0.0054573196
	    N    -0.6230313316  -0.9434404887  -2.3704245368
	    N     0.6535941491   0.9558973162  -2.3162415447
	    H     0.6008555698   1.0053164982  -3.3294810387
	    H     1.1651912304   1.6925182723  -1.8400985166
	    H    -1.3421643328  -0.6642362801  -3.0248769187
	    H    -0.5693141215  -1.9326348981  -2.1427427810
18
Geometry for iteration 2
	    C     0.0622043373  -0.0167979542  -0.1820708757
	    C     0.1330862931   1.2001807319   0.5266743916
	    C     0.0813740845   1.1969098207   1.9159051544
	    C    -0.0094941874  -0.0114184149   2.6126122127
	    C    -0.0691655817  -1.2232483018   1.9173970557
	    C    -0.0473137564  -1.2286271683   0.5283611395
	    C     0.0796452789  -0.0225281236  -1.6476305905
	    H     0.1626900632   2.1520547328   0.0044961324
	    H     0.1053611902   2.1380986557   2.4553561883
	    H    -0.0420863439  -0.0085320652   3.6976855168
	    H    -0.1372872244  -2.1607044570   2.4592203451
	    H    -0.0870179470  -2.1782945384   0.0038532628
	    N    -0.5932917182  -0.9475421567  -2.3788956957
	    N     0.6435492156   0.9665470890  -2.3186195932
	    H     0.6025910161   0.9998676800  -3.3320766890
	    H     1.1237495815   1.7197201516  -1.8476227088
	    H    -1.3132001422  -0.6735042982  -3.0341038423
	    H    -0.6059681591  -1.9166673835  -2.0757764041
18
Geometry for iteration 3
	    C     0.0660363124  -0.0188325780  -0.1862102212
	    C     0.1367164710   1.1966350699   0.5246160829
	    C     0.0819430397   1.1928622171   1.9138224619
	    C    -0.0111147449  -0.0154261624   2.6100832053
	    C    -0.0699976612  -1.2263753162   1.9135222231
	    C    -0.0450511883  -1.2304074740   0.5243324910
	    C     0.0862797279  -0.0209824267  -1.6523499564
	    H     0.1684112514   2.1505561892   0.0064035081
	    H     0.1055288368   2.1340054375   2.4533699998
	    H    -0.0455367693  -0.0129898967   3.6950493565
	    H    -0.1392085344  -2.1645646487   2.4538282914
	    H    -0.0837608236  -2.1820437079   0.0026335144
	    N    -0.5677003038  -0.9541256135  -2.3875022226
	    N     0.6386507542   0.9757181554  -2.3239817445
	    H     0.6126399991   0.9967817072  -3.3375992659
	    H     1.1002411517   1.7414949301  -1.8546199169
	    H    -1.2900067506  -0.6833130811  -3.0422747679
	    H    -0.6546447680  -1.8934788011  -2.0083580391
18
Geometry for iteration 4
	    C     0.0677610670  -0.0220828660  -0.1905317865
	    C     0.1360326984   1.1931057667   0.5207606684
	    C     0.0797488726   1.1899119298   1.9101119733
	    C    -0.0122123340  -0.0182299085   2.6067669425
	    C    -0.0677736974  -1.2291957729   1.9100181057
	    C    -0.0406997281  -1.2335389573   0.5206619546
	    C     0.0901311760  -0.0214036887  -1.6573921967
	    H     0.1672592634   2.1477938360   0.0038553125
	    H     0.1015980892   2.1314379944   2.4490875862
	    H    -0.0472527799  -0.0157266824   3.6917217800
	    H    -0.1344744157  -2.1679566123   2.4498137848
	    H    -0.0732693408  -2.1878294030   0.0023149443
	    N    -0.5452818748  -0.9631493298  -2.3960823075
	    N     0.6364216353   0.9826093139  -2.3259706231
	    H     0.6273390601   0.9978298961  -3.3397877395
	    H     1.0878182921   1.7541198845  -1.8535394327
	    H    -1.2699582601  -0.6902516652  -3.0490967370
	    H    -0.7137617233  -1.8619297354  -1.9479472295
18
Geometry for iteration 5
	    C     0.0685423811  -0.0241873022  -0.1942458920
	    C     0.1311630861   1.1910724688   0.5171278257
	    C     0.0737928464   1.1876986428   1.9064490032
	    C    -0.0139677383  -0.0208663015   2.6030735038
	    C    -0.0625476487  -1.2319488129   1.9061651813
	    C    -0.0330545726  -1.2363306508   0.5166796533
	    C     0.0933253137  -0.0224794157  -1.6611263198
	    H     0.1591899624   2.1460005517   0.0004224500
	    H     0.0917056393   2.1294044272   2.4452375637
	    H    -0.0494282710  -0.0187585520   3.6880214864
	    H    -0.1231457096  -2.1714228626   2.4455130474
	    H    -0.0527691430  -2.1923520166   0.0000547602
	    N    -0.5261700157  -0.9736487503  -2.4017617138
	    N     0.6367612280   0.9848095643  -2.3272769790
	    H     0.6431005358   0.9957971836  -3.3412075464
	    H     1.0880760696   1.7544297846  -1.8523326049
	    H    -1.2522600712  -0.6913844961  -3.0512707551
	    H    -0.7828878922  -1.8203194623  -1.8947576640
18
Geometry for iteration 6
	    C     0.0692342348  -0.0253701466  -0.1972708897
	    C     0.1208975579   1.1904888510   0.5139486568
	    C     0.0625894009   1.1862511264   1.9031976956
	    C    -0.0166320165  -0.0233494591   2.5994104777
	    C    -0.0529316796  -1.2348249816   1.9024289990
	    C    -0.0201901029  -1.2391296148   0.5127863701
	    C     0.0968200077  -0.0246065589  -1.6636381864
	    H     0.1405953586   2.1453592485  -0.0033515369
	    H     0.0726014406   2.1279119266   2.4423077145
	    H    -0.0531059911  -0.0217856680   3.6843295814
	    H    -0.1030785464  -2.1750748239   2.4415777797
	    H    -0.0183705957  -2.1956101909  -0.0041072485
	    N    -0.5149315709  -0.9845230194  -2.4037918530
	    N     0.6411696275   0.9823273601  -2.3289680419
	    H     0.6595561204   0.9898556491  -3.3428030872
	    H     1.1103369616   1.7406003296  -1.8523535620
	    H    -1.2407709774  -0.6843240111  -3.0484345568
	    H    -0.8643632296  -1.7686820169  -1.8505033124
18
Geometry for iteration 7
	    C     0.0705453351  -0.0263828256  -0.1980479539
	    C     0.1097136523   1.1908627975   0.5115484762
	    C     0.0504758332   1.1863672421   1.9007540624
	    C    -0.0191672238  -0.0239324007   2.5971909310
	    C    -0.0420687218  -1.2364085650   1.9011663223
	    C    -0.0057365821  -1.2416099949   0.5115214299
	    C     0.1001931198  -0.0277970957  -1.6633131556
	    H     0.1186782113   2.1445842477  -0.0083505427
	    H     0.0512133281   2.1281046604   2.4398579018
	    H    -0.0577017521  -0.0220433741   3.6820557610
	    H    -0.0823144391  -2.1766706023   2.4411410917
	    H     0.0165579727  -2.1967719436  -0.0072593553
	    N    -0.5220963228  -0.9867519536  -2.4014852759
	    N     0.6469845154   0.9772564234  -2.3281649912
	    H     0.6672712502   0.9854654442  -3.3420453250
	    H     1.1503002838   1.7139818976  -1.8505167616
	    H    -1.2441090626  -0.6688301916  -3.0441346781
	    H    -0.9193133977  -1.7339097658  -1.8371529369
18
Geometry for iteration 8
	    C     0.0703926003  -0.0250557590  -0.1977915404
	    C     0.1070770383   1.1924548357   0.5112813327
	    C     0.0478355204   1.1869059510   1.9005894018
	    C    -0.0193677854  -0.0239426166   2.5963539605
	    C    -0.0398032559  -1.2364266859   1.9001794804
	    C    -0.0030491164  -1.2412588701   0.5105877386
	    C     0.0982888693  -0.0261317596  -1.6626306644
	    H     0.1136116591   2.1452554913  -0.0102414193
	    H     0.0467656476   2.1281873608   2.4404371732
	    H    -0.0583283205  -0.0224475447   3.6812157804
	    H    -0.0790125899  -2.1766717835   2.4402255656
	    H     0.0202803770  -2.1945578019  -0.0110473418
	    N    -0.5285722212  -0.9845074881  -2.3985933960
	    N     0.6477984517   0.9772536858  -2.3273410727
	    H     0.6682387799   0.9864370276  -3.3413351407
	    H     1.1657253256   1.7030771281  -1.8491401233
	    H    -1.2514878392  -0.6675580176  -3.0407972668
	    H    -0.9169671409  -1.7354991532  -1.8371874678
18
Geometry for iteration 9
	    C     0.0695090016  -0.0262619008  -0.1978126247
	    C     0.1014901939   1.1920163420   0.5101129694
	    C     0.0426865683   1.1870178880   1.8995213600
	    C    -0.0192532663  -0.0236474400   2.5959468072
	    C    -0.0345688000  -1.2368255687   1.9007832736
	    C     0.0015482614  -1.2425972579   0.5112342202
	    C     0.0972346316  -0.0267727919  -1.6628536177
	    H     0.1040697343   2.1438510142  -0.0131270467
	    H     0.0379382147   2.1285248446   2.4389754403
	    H    -0.0578102463  -0.0215663350   3.6808220367
	    H    -0.0690335688  -2.1767240701   2.4417999889
	    H     0.0301435571  -2.1958236140  -0.0102178517
	    N    -0.5358023152  -0.9804849323  -2.3994192277
	    N     0.6533494544   0.9737608851  -2.3263361238
	    H     0.6742094947   0.9844604402  -3.3403252294
	    H     1.1803702859   1.6920827191  -1.8467816642
	    H    -1.2566542975  -0.6583648978  -3.0414148752
	    H    -0.9300009037  -1.7271313247  -1.8361428352
18
Geometry for iteration 10
	    C     0.0783620192  -0.0299154538  -0.1967912066
	    C     0.0715692716   1.1935501077   0.5041238888
	    C     0.0125455577   1.1917484817   1.8939877697
	    C    -0.0151043959  -0.0180508764   2.5943179021
	    C     0.0008139904  -1.2350849621   1.9046150927
	    C     0.0362483181  -1.2463323966   0.5152206999
	    C     0.0911717135  -0.0320756484  -1.6628240558
	    H     0.0427467111   2.1402549796  -0.0282134004
	    H    -0.0212373427   2.1347421833   2.4307208653
	    H    -0.0550553764  -0.0126525138   3.6791476566
	    H    -0.0103034308  -2.1730312456   2.4506957126
	    H     0.0861321591  -2.1987562653  -0.0069511753
	    N    -0.5816089585  -0.9598315061  -2.3993937743
	    N     0.6757352121   0.9625204908  -2.3108070261
	    H     0.7032702850   0.9851819320  -3.3246864044
	    H     1.2936777734   1.6082388206  -1.8210827479
	    H    -1.2950988653  -0.6077302481  -3.0354476489
	    H    -1.0244386418  -1.7172618793  -1.8818671481
18
Geometry for iteration 10
	    C     0.0738605639  -0.0284271546  -0.1973815261
	    C     0.0866469938   1.1928457830   0.5068942452
	    C     0.0277943124   1.1896198673   1.8965353199
	    C    -0.0170980138  -0.0207699188   2.5950617615
	    C    -0.0169750599  -1.2361693811   1.9027739845
	    C     0.0187159003  -1.2448485766   0.5132951164
	    C     0.0941148784  -0.0297464593  -1.6629571459
	    H     0.0735370569   2.1423337267  -0.0210206273
	    H     0.0086467925   2.1321604510   2.4345185367
	    H    -0.0562952025  -0.0168751895   3.6799189686
	    H    -0.0398298775  -2.1751723657   2.4464439672
	    H     0.0578577981  -2.1978598693  -0.0083997168
	    N    -0.5591164351  -0.9707146649  -2.3997093042
	    N     0.6644328668   0.9681622864  -2.3185975937
	    H     0.6888403398   0.9857491906  -3.3325642598
	    H     1.2383656412   1.6527390928  -1.8322998943
	    H    -1.2765257832  -0.6334375752  -3.0387679947
	    H    -0.9775467721  -1.7240752430  -1.8589788372
18
Geometry for iteration 0
	    C     0.0695090016  -0.0262619008  -0.1978126247
	    C     0.1014901939   1.1920163420   0.5101129694
	    C     0.0426865683   1.1870178880   1.8995213600
	    C    -0.0192532663  -0.0236474400   2.5959468072
	    C    -0.0345688000  -1.2368255687   1.9007832736
	    C     0.0015482614  -1.2425972579   0.5112342202
	    C     0.0972346316  -0.0267727919  -1.6628536177
	    H     0.1040697343   2.1438510142  -0.0131270467
	    H     0.0379382147   2.1285248446   2.4389754403
	    H    -0.0578102463  -0.0215663350   3.6808220367
	    H    -0.0690335688  -2.1767240701   2.4417999889
	    H     0.0301435571  -2.1958236140  -0.0102178517
	    N    -0.5358023152  -0.9804849323  -2.3994192277
	    N     0.6533494544   0.9737608851  -2.3263361238
	    H     0.6742094947   0.9844604402  -3.3403252294
	    H     1.1803702859   1.6920827191  -1.8467816642
	    H    -1.2566542975  -0.6583648978  -3.0414148752
	    H    -0.9300009037  -1.7271313247  -1.8361428352
18
Geometry for iteration 1
	    C     0.0696474991  -0.0263426366  -0.1977433406
	    C     0.1013366098   1.1920657638   0.5100673837
	    C     0.0426592700   1.1870256094   1.8995476826
	    C    -0.0192451460  -0.0236011586   2.5959386305
	    C    -0.0346126847  -1.2367879695   1.9007501042
	    C     0.0016284033  -1.2426331226   0.5111834311
	    C     0.0978282477  -0.0271304235  -1.6629943899
	    H     0.1040515446   2.1438135889  -0.0132863372
	    H     0.0379033164   2.1285308556   2.4390049516
	    H    -0.0578052873  -0.0215559720   3.6808215876
	    H    -0.0690261508  -2.1766881096   2.4417916178
	    H     0.0301403649  -2.1958513541  -0.0104001529
	    N    -0.5361108453  -0.9803008257  -2.3991993918
	    N     0.6535182485   0.9737917381  -2.3262928524
	    H     0.6740896675   0.9847147495  -3.3403269174
	    H     1.1803472305   1.6922356136  -1.8466089759
	    H    -1.2565955033  -0.6584039969  -3.0416382906
	    H    -0.9303227973  -1.7274117277  -1.8357551419
18
Geometry for iteration 2
	    C     0.0696474991  -0.0263426366  -0.1977433406
	    C     0.1013366098   1.1920657638   0.5100673837
	    C     0.0426592700   1.1870256094   1.8995476826
	    C    -0.0192451460  -0.0236011586   2.5959386305
	    C    -0.0346126847  -1.2367879695   1.9007501042
	    C     0.0016284033  -1.2426331226   0.5111834311
	    C     0.0978282477  -0.0271304235  -1.6629943899
	    H     0.1040515446   2.1438135889  -0.0132863372
	    H     0.0379033164   2.1285308556   2.4390049516
	    H    -0.0578052873  -0.0215559720   3.6808215876
	    H    -0.0690261508  -2.1766881096   2.4417916178
	    H     0.0301403649  -2.1958513541  -0.0104001529
	    N    -0.5361108453  -0.9803008257  -2.3991993918
	    N     0.6535182485   0.9737917381  -2.3262928524
	    H     0.6740896675   0.9847147495  -3.3403269174
	    H     1.1803472305   1.6922356136  -1.8466089759
	    H    -1.2565955033  -0.6584039969  -3.0416382906
	    H    -0.9303227973  -1.7274117277  -1.8357551419
