18
Geometry for iteration 0
	    C     0.0000000000   0.0000000000  -0.1778640000
	    C     0.0366780000   1.2193740000   0.5241650000
	    C     0.0317650000   1.2131200000   1.9154440000
	    C     0.0000000000   0.0000000000   2.6101070000
	    C    -0.0317650000  -1.2131200000   1.9154440000
	    C    -0.0366780000  -1.2193750000   0.5241650000
	    C     0.0000000000   0.0000000000  -1.6447340000
	    H     0.0181700000   2.1647050000  -0.0108540000
	    H     0.0424020000   2.1528950000   2.4578860000
	    H     0.0000000000   0.0000000000   3.6957560000
	    H    -0.0424020000  -2.1528950000   2.4578860000
	    H    -0.0181700000  -2.1647050000  -0.0108530000
	    N     0.5460370000  -1.0150730000  -2.3084610000
	    N    -0.5460370000   1.0150730000  -2.3084600000
	    H    -0.6538310000   1.0193120000  -3.3159970000
	    H    -0.8124210000   1.8559980000  -1.8133160000
	    H     0.8124210000  -1.8559980000  -1.8133170000
	    H     0.6538310000  -1.0193110000  -3.3159970000
18
Geometry for iteration 0
	    C     0.0000000000   0.0000000000  -0.1778640000
	    C     0.0366780000   1.2193740000   0.5241650000
	    C     0.0317650000   1.2131200000   1.9154440000
	    C     0.0000000000   0.0000000000   2.6101070000
	    C    -0.0317650000  -1.2131200000   1.9154440000
	    C    -0.0366780000  -1.2193750000   0.5241650000
	    C     0.0000000000   0.0000000000  -1.6447340000
	    H     0.0181700000   2.1647050000  -0.0108540000
	    H     0.0424020000   2.1528950000   2.4578860000
	    H     0.0000000000   0.0000000000   3.6957560000
	    H    -0.0424020000  -2.1528950000   2.4578860000
	    H    -0.0181700000  -2.1647050000  -0.0108530000
	    N     0.5460370000  -1.0150730000  -2.3084610000
	    N    -0.5460370000   1.0150730000  -2.3084600000
	    H    -0.6538310000   1.0193120000  -3.3159970000
	    H    -0.8124210000   1.8559980000  -1.8133160000
	    H     0.8124210000  -1.8559980000  -1.8133170000
	    H     0.6538310000  -1.0193110000  -3.3159970000
18
Geometry for iteration 1
	    C     0.0082792637   0.0010544929  -0.1739754022
	    C     0.0397364519   1.2166590701   0.5367137825
	    C     0.0392629744   1.2110630066   1.9275766589
	    C    -0.0019597526   0.0001364649   2.6227662846
	    C    -0.0403180723  -1.2102694208   1.9265355994
	    C    -0.0328228895  -1.2148792942   0.5356395251
	    C     0.0058114427   0.0017743742  -1.6498308813
	    H     0.0577412361   2.1705811186   0.0164009477
	    H     0.0674153149   2.1509244601   2.4694571694
	    H    -0.0053621091  -0.0002402297   3.7082871898
	    H    -0.0736039548  -2.1504896226   2.4676938793
	    H    -0.0509408062  -2.1684836734   0.0147617272
	    N     0.5525286073  -1.0038107008  -2.3285368030
	    N    -0.5535758694   1.0023963003  -2.3257034347
	    H    -0.6259578214   1.0029627383  -3.3365614112
	    H    -0.8867565235   1.8280543157  -1.8432705713
	    H     0.8869448594  -1.8292301314  -1.8463635474
	    H     0.6135776483  -1.0082032687  -3.3405907126
18
Geometry for iteration 2
	    C     0.0125213995   0.0011849048  -0.1768072642
	    C     0.0422343340   1.2162857594   0.5317878850
	    C     0.0430268167   1.2112916219   1.9225711860
	    C    -0.0032806609   0.0003993462   2.6186424703
	    C    -0.0448284014  -1.2099285282   1.9213871230
	    C    -0.0315594521  -1.2141548306   0.5305819206
	    C     0.0073322958   0.0018818376  -1.6486539294
	    H     0.0909055586   2.1705097849   0.0129411408
	    H     0.0827939865   2.1516468604   2.4626728710
	    H    -0.0084577125   0.0000402151   3.7041979670
	    H    -0.0923809867  -2.1505265161   2.4605423251
	    H    -0.0798538771  -2.1680077538   0.0111300418
	    N     0.5568539442  -1.0051350174  -2.3229189531
	    N    -0.5596293706   1.0026410970  -2.3179316278
	    H    -0.6004234540   1.0259204726  -3.3304650797
	    H    -0.9519894756   1.7978870122  -1.8277078972
	    H     0.9551822742  -1.7991564644  -1.8348360294
	    H     0.5815527813  -1.0327798015  -3.3361341499
18
Geometry for iteration 3
	    C     0.0189204963   0.0019798938  -0.1789714373
	    C     0.0512672303   1.2175039120   0.5287227382
	    C     0.0476554740   1.2119491741   1.9200012043
	    C    -0.0052624471   0.0006244233   2.6157932115
	    C    -0.0504763510  -1.2097125715   1.9179763964
	    C    -0.0348624376  -1.2139655323   0.5266621269
	    C     0.0105529641   0.0026383323  -1.6484321261
	    H     0.1247359626   2.1683671774   0.0070903345
	    H     0.0935611035   2.1518045141   2.4603634134
	    H    -0.0132222794   0.0000131415   3.7013392683
	    H    -0.1080210685  -2.1499701014   2.4565753879
	    H    -0.1067789497  -2.1639823391   0.0034902406
	    N     0.5581861734  -1.0057324584  -2.3201694776
	    N    -0.5632394700   1.0012372586  -2.3130034276
	    H    -0.5753078634   1.0504571796  -3.3255808579
	    H    -1.0144968682   1.7582893230  -1.8129536981
	    H     1.0202465782  -1.7601642090  -1.8252311485
	    H     0.5465417523  -1.0613371180  -3.3326721490
18
Geometry for iteration 4
	    C     0.0250771696   0.0019669869  -0.1794775194
	    C     0.0624423016   1.2184768829   0.5272140011
	    C     0.0528803754   1.2127135228   1.9184216576
	    C    -0.0075089285   0.0012100028   2.6136257869
	    C    -0.0569762571  -1.2094853633   1.9165165480
	    C    -0.0403950435  -1.2145626472   0.5252084779
	    C     0.0126250899   0.0024227154  -1.6480131891
	    H     0.1550933827   2.1652668670   0.0017109767
	    H     0.1021821086   2.1519701982   2.4595493389
	    H    -0.0183282466   0.0008164094   3.6991498130
	    H    -0.1217555399  -2.1488641376   2.4558417658
	    H    -0.1297929251  -2.1604912659  -0.0020340229
	    N     0.5564190023  -1.0083927063  -2.3193190958
	    N    -0.5644038238   1.0015913848  -2.3088628808
	    H    -0.5482470640   1.0752257173  -3.3198429636
	    H    -1.0733036250   1.7180649671  -1.8041279817
	    H     1.0838534444  -1.7199498680  -1.8255134204
	    H     0.5101385792  -1.0879796662  -3.3290472923
18
Geometry for iteration 5
	    C     0.0264844938   0.0016864094  -0.1784687123
	    C     0.0715298112   1.2192028126   0.5270921461
	    C     0.0584938687   1.2133158976   1.9180137819
	    C    -0.0090992862   0.0016056654   2.6125677368
	    C    -0.0632539198  -1.2095778767   1.9163974878
	    C    -0.0470569517  -1.2154504900   0.5252775177
	    C     0.0115822571   0.0014213727  -1.6458015805
	    H     0.1769842764   2.1622661545  -0.0022587254
	    H     0.1110245743   2.1518457909   2.4601531224
	    H    -0.0211851098   0.0014720649   3.6981232992
	    H    -0.1318497649  -2.1480210640   2.4569130934
	    H    -0.1454758285  -2.1579165147  -0.0059976295
	    N     0.5492861416  -1.0134160293  -2.3171567152
	    N    -0.5603889382   1.0045294140  -2.3060914887
	    H    -0.5140642663   1.0970323301  -3.3145089688
	    H    -1.1268337291   1.6805270312  -1.8063304403
	    H     1.1403732124  -1.6810113614  -1.8335800595
	    H     0.4734491592  -1.1095116070  -3.3233438652
18
Geometry for iteration 6
	    C     0.0236118635   0.0017493392  -0.1776251805
	    C     0.0690281687   1.2193902023   0.5278910473
	    C     0.0584837073   1.2132877063   1.9187463321
	    C    -0.0079385914   0.0013918683   2.6131728582
	    C    -0.0625881196  -1.2099056977   1.9171256035
	    C    -0.0474160000  -1.2156843065   0.5260875438
	    C     0.0112615542   0.0017088978  -1.6443875105
	    H     0.1708563666   2.1624898558  -0.0017626648
	    H     0.1121798872   2.1515602129   2.4611969158
	    H    -0.0189153783   0.0012019101   3.6987609627
	    H    -0.1306120500  -2.1481918921   2.4579581487
	    H    -0.1432346886  -2.1581395867  -0.0054532937
	    N     0.5486610782  -1.0134906197  -2.3164609773
	    N    -0.5582322452   1.0053471444  -2.3068464695
	    H    -0.5146805781   1.0912803608  -3.3153796989
	    H    -1.1215702754   1.6841162074  -1.8122646780
	    H     1.1326518740  -1.6854611965  -1.8365539968
	    H     0.4784534270  -1.1026504062  -3.3232049420
18
Geometry for iteration 7
	    C     0.0230645771   0.0013635396  -0.1774354543
	    C     0.0687662495   1.2192364553   0.5278713762
	    C     0.0586566323   1.2132993025   1.9186824281
	    C    -0.0075636267   0.0014583615   2.6132143561
	    C    -0.0626895354  -1.2100193181   1.9174649151
	    C    -0.0478290176  -1.2160684486   0.5264969733
	    C     0.0107124068   0.0013804238  -1.6438089328
	    H     0.1698257821   2.1621145034  -0.0022299318
	    H     0.1126845703   2.1515182877   2.4611880799
	    H    -0.0180990967   0.0014400043   3.6988115310
	    H    -0.1308692723  -2.1480697731   2.4586791301
	    H    -0.1439750117  -2.1583875543  -0.0051683060
	    N     0.5478115563  -1.0137966986  -2.3163824543
	    N    -0.5569487540   1.0059635970  -2.3066452326
	    H    -0.5135112889   1.0907726543  -3.3152746855
	    H    -1.1224524654   1.6837687179  -1.8132895093
	    H     1.1336678320  -1.6849776527  -1.8378034172
	    H     0.4787484623  -1.1009964018  -3.3233708659
18
Geometry for iteration 8
	    C     0.0230645771   0.0013635396  -0.1774354543
	    C     0.0687662495   1.2192364553   0.5278713762
	    C     0.0586566323   1.2132993025   1.9186824281
	    C    -0.0075636267   0.0014583615   2.6132143561
	    C    -0.0626895354  -1.2100193181   1.9174649151
	    C    -0.0478290176  -1.2160684486   0.5264969733
	    C     0.0107124068   0.0013804238  -1.6438089328
	    H     0.1698257821   2.1621145034  -0.0022299318
	    H     0.1126845703   2.1515182877   2.4611880799
	    H    -0.0180990967   0.0014400043   3.6988115310
	    H    -0.1308692723  -2.1480697731   2.4586791301
	    H    -0.1439750117  -2.1583875543  -0.0051683060
	    N     0.5478115563  -1.0137966986  -2.3163824543
	    N    -0.5569487540   1.0059635970  -2.3066452326
	    H    -0.5135112889   1.0907726543  -3.3152746855
	    H    -1.1224524654   1.6837687179  -1.8132895093
	    H     1.1336678320  -1.6849776527  -1.8378034172
	    H     0.4787484623  -1.1009964018  -3.3233708659
