18
Geometry for iteration 0
	    C     0.0000000000   0.0000000000  -0.1778640000
	    C     0.0366780000   1.2193740000   0.5241650000
	    C     0.0317650000   1.2131200000   1.9154440000
	    C     0.0000000000   0.0000000000   2.6101070000
	    C    -0.0317650000  -1.2131200000   1.9154440000
	    C    -0.0366780000  -1.2193750000   0.5241650000
	    C     0.0000000000   0.0000000000  -1.6447340000
	    H     0.0181700000   2.1647050000  -0.0108540000
	    H     0.0424020000   2.1528950000   2.4578860000
	    H     0.0000000000   0.0000000000   3.6957560000
	    H    -0.0424020000  -2.1528950000   2.4578860000
	    H    -0.0181700000  -2.1647050000  -0.0108530000
	    N    -0.7125900000  -0.9059500000  -2.3084610000
	    N     0.7125900000   0.9059500000  -2.3084600000
	    H     0.6734320000   1.0064700000  -3.3159970000
	    H     1.3771900000   1.4859700000  -1.8133160000
	    H    -1.1294020000  -1.6822070000  -1.8114940000
	    H    -0.9206200000  -0.8259990000  -3.2969430000
18
Geometry for iteration 1
	    C     0.0243970389  -0.0281725185  -0.1759641503
	    C     0.0614868510   1.1977856427   0.5126991726
	    C     0.0359452998   1.2077415552   1.9045528754
	    C    -0.0045696115   0.0042919026   2.6140740411
	    C    -0.0267538271  -1.2167047797   1.9332170826
	    C    -0.0163340865  -1.2385559847   0.5423452160
	    C     0.0269034137  -0.0301220532  -1.6462379556
	    H     0.0519844504   2.1371941955  -0.0328929166
	    H     0.0405914444   2.1543951568   2.4351573332
	    H    -0.0172206950   0.0172788215   3.6996639324
	    H    -0.0420280035  -2.1502139682   2.4864453984
	    H     0.0133727572  -2.1946115416   0.0256585548
	    N    -0.7498149569  -0.8794843481  -2.3217306263
	    N     0.7009339610   0.9129843554  -2.2996126620
	    H     0.6553689462   1.0270019423  -3.3055572737
	    H     1.3183479300   1.5374805280  -1.7936390849
	    H    -1.2318528491  -1.6284610156  -1.8379354771
	    H    -0.8401580633  -0.8455948904  -3.3383664599
18
Geometry for iteration 2
	    C     0.0144126325  -0.0051871041  -0.1750516823
	    C     0.0483733367   1.2135251382   0.5274066270
	    C     0.0351209541   1.2069015970   1.9196419676
	    C     0.0046135565  -0.0043766546   2.6157730657
	    C    -0.0214320845  -1.2172541361   1.9205368912
	    C    -0.0212937490  -1.2223580495   0.5293736587
	    C    -0.0063033597   0.0012244345  -1.6464437224
	    H     0.0236015090   2.1611618418  -0.0031893671
	    H     0.0384132629   2.1477917645   2.4604724393
	    H    -0.0014780591  -0.0037747119   3.7014683790
	    H    -0.0330497389  -2.1575036204   2.4623289738
	    H     0.0008430878  -2.1724065705   0.0006587175
	    N    -0.7895679727  -0.8501222868  -2.3062389557
	    N     0.7006721517   0.9088445931  -2.3154634703
	    H     0.6728711553   0.9973841799  -3.3249874639
	    H     1.3405081687   1.5178508559  -1.8209352800
	    H    -1.2546878485  -1.5999468366  -1.8100765056
	    H    -0.7510170028  -0.9375214344  -3.3333972725
18
Geometry for iteration 3
	    C     0.0041167782  -0.0040919971  -0.1773878190
	    C     0.0399193565   1.2147469838   0.5241758857
	    C     0.0354893240   1.2080216026   1.9160615117
	    C     0.0065274440  -0.0041103815   2.6114034399
	    C    -0.0222274324  -1.2170065611   1.9161766401
	    C    -0.0290771990  -1.2221358505   0.5249477357
	    C    -0.0050508760  -0.0004223513  -1.6466156640
	    H     0.0201278622   2.1615657853  -0.0080868531
	    H     0.0451818237   2.1485457273   2.4573300077
	    H     0.0068200415  -0.0040528717   3.6970081070
	    H    -0.0298965253  -2.1573496008   2.4576461979
	    H    -0.0072172024  -2.1704088513  -0.0061265261
	    N    -0.7864504719  -0.8505964724  -2.3073290798
	    N     0.7023004346   0.9095094027  -2.3087629364
	    H     0.6643168395   1.0130107021  -3.3162599448
	    H     1.3469533473   1.5082529845  -1.8097780117
	    H    -1.2544000344  -1.5945034768  -1.8061222644
	    H    -0.7368335103  -0.9547417738  -3.3164034264
18
Geometry for iteration 4
	    C     0.0040649785  -0.0033675629  -0.1773989481
	    C     0.0393090943   1.2153401456   0.5246005284
	    C     0.0326763698   1.2084161159   1.9163560520
	    C     0.0067934501  -0.0041471747   2.6114285872
	    C    -0.0193419828  -1.2170036207   1.9164081569
	    C    -0.0252143672  -1.2219591092   0.5250643576
	    C    -0.0050336190  -0.0004962829  -1.6467399852
	    H     0.0154013625   2.1615565221  -0.0084860978
	    H     0.0378594729   2.1486507629   2.4581409460
	    H     0.0059531909  -0.0042719787   3.6970247092
	    H    -0.0259092388  -2.1572235672   2.4581153229
	    H    -0.0022313740  -2.1698829486  -0.0063366377
	    N    -0.7900753644  -0.8469985333  -2.3089341753
	    N     0.7060198250   0.9062084816  -2.3091465143
	    H     0.6590624707   1.0171166461  -3.3154404255
	    H     1.3597238286   1.4960132892  -1.8112001194
	    H    -1.2610962714  -1.5883060262  -1.8063300314
	    H    -0.7373618258  -0.9554121589  -3.3152487257
18
Geometry for iteration 5
	    C     0.0036612970  -0.0034410283  -0.1774310039
	    C     0.0396177798   1.2154131830   0.5242559621
	    C     0.0342627224   1.2085028082   1.9159547101
	    C     0.0068495862  -0.0040956472   2.6110260379
	    C    -0.0212302680  -1.2170457799   1.9161844916
	    C    -0.0278183309  -1.2220990716   0.5248541869
	    C    -0.0048088284  -0.0006308413  -1.6464131643
	    H     0.0182156849   2.1612786437  -0.0095829269
	    H     0.0418818276   2.1486530996   2.4578333150
	    H     0.0070421156  -0.0041058036   3.6966367564
	    H    -0.0285526727  -2.1571834954   2.4580251405
	    H    -0.0066431557  -2.1698663916  -0.0069484802
	    N    -0.7879019240  -0.8491081661  -2.3086673572
	    N     0.7044225314   0.9079639567  -2.3084922270
	    H     0.6550457195   1.0211790756  -3.3143691497
	    H     1.3567976427   1.4988909827  -1.8101556440
	    H    -1.2572375782  -1.5912424803  -1.8055179046
	    H    -0.7330041494  -0.9588300443  -3.3153157426
18
Geometry for iteration 6
	    C     0.0037477861  -0.0036107426  -0.1773867852
	    C     0.0397137574   1.2153123277   0.5243062976
	    C     0.0341071201   1.2085149055   1.9159711604
	    C     0.0067030884  -0.0040418629   2.6110882745
	    C    -0.0210645470  -1.2170635760   1.9163512800
	    C    -0.0274771835  -1.2222219690   0.5250533433
	    C    -0.0047649862  -0.0007490270  -1.6463147293
	    H     0.0180701184   2.1611005033  -0.0096176437
	    H     0.0413997443   2.1486603373   2.4578591126
	    H     0.0067001567  -0.0039371779   3.6967001107
	    H    -0.0282284964  -2.1571351399   2.4583015727
	    H    -0.0056809466  -2.1700372077  -0.0066188322
	    N    -0.7882755165  -0.8486707248  -2.3088415881
	    N     0.7048607150   0.9074325228  -2.3086132387
	    H     0.6545647143   1.0211534012  -3.3143700887
	    H     1.3574516927   1.4982437429  -1.8104766074
	    H    -1.2581412257  -1.5906625859  -1.8060438440
	    H    -0.7330859915  -0.9580547269  -3.3154707942
18
Geometry for iteration 7
	    C     0.0037477861  -0.0036107426  -0.1773867852
	    C     0.0397137574   1.2153123277   0.5243062976
	    C     0.0341071201   1.2085149055   1.9159711604
	    C     0.0067030884  -0.0040418629   2.6110882745
	    C    -0.0210645470  -1.2170635760   1.9163512800
	    C    -0.0274771835  -1.2222219690   0.5250533433
	    C    -0.0047649862  -0.0007490270  -1.6463147293
	    H     0.0180701184   2.1611005033  -0.0096176437
	    H     0.0413997443   2.1486603373   2.4578591126
	    H     0.0067001567  -0.0039371779   3.6967001107
	    H    -0.0282284964  -2.1571351399   2.4583015727
	    H    -0.0056809466  -2.1700372077  -0.0066188322
	    N    -0.7882755165  -0.8486707248  -2.3088415881
	    N     0.7048607150   0.9074325228  -2.3086132387
	    H     0.6545647143   1.0211534012  -3.3143700887
	    H     1.3574516927   1.4982437429  -1.8104766074
	    H    -1.2581412257  -1.5906625859  -1.8060438440
	    H    -0.7330859915  -0.9580547269  -3.3154707942
