18
Geometry for iteration 0
	    C     0.0000000000   0.0000000000  -0.1778640000
	    C     0.0366780000   1.2193740000   0.5241650000
	    C     0.0317650000   1.2131200000   1.9154440000
	    C     0.0000000000   0.0000000000   2.6101070000
	    C    -0.0317650000  -1.2131200000   1.9154440000
	    C    -0.0366780000  -1.2193750000   0.5241650000
	    C     0.0000000000   0.0000000000  -1.6447340000
	    H     0.0181700000   2.1647050000  -0.0108540000
	    H     0.0424020000   2.1528950000   2.4578860000
	    H     0.0000000000   0.0000000000   3.6957560000
	    H    -0.0424020000  -2.1528950000   2.4578860000
	    H    -0.0181700000  -2.1647050000  -0.0108530000
	    N    -1.0944700000  -0.3614760000  -2.3084610000
	    N     1.0944700000   0.3614760000  -2.3084600000
	    H     1.1173620000   0.4668970000  -3.3159970000
	    H     1.9688770000   0.4777880000  -1.8133160000
	    H    -1.9688770000  -0.4777870000  -1.8133170000
	    H    -1.1173630000  -0.4668960000  -3.3159970000
18
Geometry for iteration 1
	    C     0.0535627422  -0.0198397110  -0.1765007598
	    C     0.0883220509   1.2054183103   0.5083238928
	    C     0.0532199445   1.2081580371   1.9011823069
	    C    -0.0167045234   0.0012118400   2.6041774968
	    C    -0.0694887100  -1.2157182528   1.9178324227
	    C    -0.0522111483  -1.2334333536   0.5248790399
	    C     0.0277093948  -0.0290200179  -1.6505674152
	    H     0.1336639906   2.1428320909  -0.0432542134
	    H     0.0816327544   2.1520328145   2.4362971312
	    H    -0.0394694068   0.0092578825   3.6898495844
	    H    -0.1345401190  -2.1513946057   2.4664330737
	    H    -0.1024307478  -2.1792837478  -0.0119610099
	    N    -1.0773081622  -0.4082608833  -2.2797356308
	    N     1.0819057493   0.4249593019  -2.3228400744
	    H     1.0918017658   0.5381911763  -3.3312088586
	    H     1.9407442161   0.6468738109  -1.8229892924
	    H    -1.9128760052  -0.6217825854  -1.7368199941
	    H    -1.1475347858  -0.4702011069  -3.2920976999
18
Geometry for iteration 2
	    C     0.0781559932  -0.0163823268  -0.1754208981
	    C     0.1090936262   1.2079056312   0.5095926992
	    C     0.0550410669   1.2078305929   1.9021816144
	    C    -0.0308852798   0.0003841827   2.6009686215
	    C    -0.0812512093  -1.2149216404   1.9122186813
	    C    -0.0485643525  -1.2298819883   0.5192745735
	    C     0.0305002095  -0.0152832179  -1.6523276014
	    H     0.1660912966   2.1434696832  -0.0402163094
	    H     0.0737379081   2.1505038359   2.4397392618
	    H    -0.0654294552   0.0068698693   3.6860846367
	    H    -0.1515805099  -2.1504009862   2.4581719810
	    H    -0.0973024153  -2.1705507166  -0.0225179188
	    N    -1.0790031523  -0.4023611023  -2.2646602144
	    N     1.0767261789   0.4312112713  -2.3331873626
	    H     1.0857093354   0.5336018319  -3.3427093694
	    H     1.9308230206   0.6543457349  -1.8360909837
	    H    -1.8845023623  -0.6666029057  -1.7064406184
	    H    -1.1673608988  -0.4697367492  -3.2736607930
18
Geometry for iteration 3
	    C     0.0706793429  -0.0215468363  -0.1757119614
	    C     0.1090645009   1.2043310236   0.5069704881
	    C     0.0588848933   1.2073632829   1.8995915699
	    C    -0.0310063473   0.0016692623   2.6004131033
	    C    -0.0833482079  -1.2154133961   1.9146896769
	    C    -0.0524417139  -1.2334828827   0.5219359471
	    C     0.0303117773  -0.0211381770  -1.6533955043
	    H     0.1679875772   2.1386350602  -0.0435957529
	    H     0.0817475042   2.1507928432   2.4355495503
	    H    -0.0642474636   0.0106597908   3.6854452831
	    H    -0.1503006875  -2.1492989737   2.4631914192
	    H    -0.0921973512  -2.1757404843  -0.0169089689
	    N    -1.0806745903  -0.3992448896  -2.2686381810
	    N     1.0757634491   0.4320113065  -2.3296972540
	    H     1.0863333891   0.5412408604  -3.3382289701
	    H     1.9242789267   0.6619782145  -1.8289638600
	    H    -1.8838301467  -0.6670302064  -1.7146184707
	    H    -1.1670058524  -0.4657847983  -3.2770281144
18
Geometry for iteration 4
	    C     0.0708423411  -0.0206555598  -0.1757745199
	    C     0.1079304794   1.2050514951   0.5073529610
	    C     0.0584752281   1.2074505649   1.9000325513
	    C    -0.0294820380   0.0013629636   2.6005518449
	    C    -0.0823831175  -1.2153918604   1.9143190173
	    C    -0.0519258902  -1.2328384062   0.5215000785
	    C     0.0298310871  -0.0188079771  -1.6533874350
	    H     0.1648349613   2.1399545693  -0.0428966088
	    H     0.0817968972   2.1506482054   2.4363693905
	    H    -0.0632283713   0.0098630512   3.6856171347
	    H    -0.1513694423  -2.1494645973   2.4625184850
	    H    -0.0941935742  -2.1750795334  -0.0176874678
	    N    -1.0812669250  -0.3978431814  -2.2683391691
	    N     1.0767741192   0.4312670019  -2.3300756173
	    H     1.0872816376   0.5397172361  -3.3386849596
	    H     1.9263065900   0.6607789100  -1.8295391083
	    H    -1.8839681810  -0.6680875956  -1.7140293530
	    H    -1.1662568016  -0.4679242863  -3.2768472244
18
Geometry for iteration 5
	    C     0.0705941499  -0.0208572139  -0.1757613271
	    C     0.1081545671   1.2048969592   0.5073174169
	    C     0.0586322036   1.2074595599   1.9000052640
	    C    -0.0295526748   0.0014357985   2.6006191544
	    C    -0.0825651999  -1.2153197511   1.9144122786
	    C    -0.0521716694  -1.2328878443   0.5215772092
	    C     0.0297072317  -0.0187904459  -1.6533642231
	    H     0.1648108894   2.1398206565  -0.0429865791
	    H     0.0823039229   2.1506809842   2.4362916993
	    H    -0.0627060719   0.0099200335   3.6857115048
	    H    -0.1513899856  -2.1493848331   2.4626655690
	    H    -0.0946089792  -2.1752398975  -0.0174793538
	    N    -1.0814023145  -0.3972207868  -2.2686970534
	    N     1.0767523295   0.4310192317  -2.3299358751
	    H     1.0869591446   0.5403426433  -3.3384700050
	    H     1.9259587574   0.6616043028  -1.8291738160
	    H    -1.8838557082  -0.6690184672  -1.7144780986
	    H    -1.1656215926  -0.4684599297  -3.2772537650
18
Geometry for iteration 6
	    C     0.0705941499  -0.0208572139  -0.1757613271
	    C     0.1081545671   1.2048969592   0.5073174169
	    C     0.0586322036   1.2074595599   1.9000052640
	    C    -0.0295526748   0.0014357985   2.6006191544
	    C    -0.0825651999  -1.2153197511   1.9144122786
	    C    -0.0521716694  -1.2328878443   0.5215772092
	    C     0.0297072317  -0.0187904459  -1.6533642231
	    H     0.1648108894   2.1398206565  -0.0429865791
	    H     0.0823039229   2.1506809842   2.4362916993
	    H    -0.0627060719   0.0099200335   3.6857115048
	    H    -0.1513899856  -2.1493848331   2.4626655690
	    H    -0.0946089792  -2.1752398975  -0.0174793538
	    N    -1.0814023145  -0.3972207868  -2.2686970534
	    N     1.0767523295   0.4310192317  -2.3299358751
	    H     1.0869591446   0.5403426433  -3.3384700050
	    H     1.9259587574   0.6616043028  -1.8291738160
	    H    -1.8838557082  -0.6690184672  -1.7144780986
	    H    -1.1656215926  -0.4684599297  -3.2772537650
