18
Geometry for iteration 0
	    C     0.0000000000   0.0000000000  -0.1778640000
	    C     0.0366780000   1.2193740000   0.5241650000
	    C     0.0317650000   1.2131200000   1.9154440000
	    C     0.0000000000   0.0000000000   2.6101070000
	    C    -0.0317650000  -1.2131200000   1.9154440000
	    C    -0.0366780000  -1.2193750000   0.5241650000
	    C     0.0000000000   0.0000000000  -1.6447340000
	    H     0.0181700000   2.1647050000  -0.0108540000
	    H     0.0424020000   2.1528950000   2.4578860000
	    H     0.0000000000   0.0000000000   3.6957560000
	    H    -0.0424020000  -2.1528950000   2.4578860000
	    H    -0.0181700000  -2.1647050000  -0.0108530000
	    N    -0.7125900000  -0.9059500000  -2.3084610000
	    N     0.7125900000   0.9059500000  -2.3084600000
	    H     0.6734320000   1.0064700000  -3.3159970000
	    H     1.3771900000   1.4859700000  -1.8133160000
	    H    -0.2932820000  -1.7914990000  -2.5599910000
	    H    -1.6946820000  -0.7824820000  -2.5252940000
18
Geometry for iteration 1
	    C     0.0002946553   0.0210663892  -0.1754133300
	    C     0.1165115398   1.2373342437   0.5416118583
	    C     0.1123113842   1.2227622131   1.9309822935
	    C     0.0168322054   0.0024209489   2.6133243806
	    C    -0.0949069476  -1.2056353860   1.9089321639
	    C    -0.1227901629  -1.2023901961   0.5199222350
	    C    -0.0086354970   0.0077145371  -1.6352507514
	    H     0.1492267046   2.1884340072   0.0145588690
	    H     0.1736777858   2.1567167128   2.4828332509
	    H     0.0176502833  -0.0068405134   3.6990995227
	    H    -0.1693564865  -2.1483434082   2.4449632591
	    H    -0.2079449997  -2.1413201469  -0.0269437178
	    N    -0.6165668223  -0.9934001544  -2.3736666372
	    N     0.6310859761   0.9644219541  -2.2845460848
	    H     0.5936178306   1.0060956626  -3.3009360774
	    H     1.2107801026   1.6552475949  -1.7951021822
	    H    -0.1011774451  -1.8254069681  -2.6539535007
	    H    -1.6379521066  -1.0204194907  -2.4853865516
18
Geometry for iteration 2
	    C    -0.0099143570   0.0583582469  -0.1784385931
	    C     0.1477318293   1.2569633109   0.5669214112
	    C     0.1576876447   1.2150782076   1.9530578349
	    C     0.0183979946  -0.0152411370   2.6137356326
	    C    -0.1532749211  -1.2030281860   1.8888485184
	    C    -0.1914433766  -1.1693435945   0.5008976152
	    C    -0.0045769245   0.0401622579  -1.6292454942
	    H     0.2045652668   2.2205663023   0.0656333169
	    H     0.2560654600   2.1343343880   2.5237012322
	    H     0.0253837273  -0.0450320401   3.6994178788
	    H    -0.2679508601  -2.1498482713   2.4095663402
	    H    -0.3374842739  -2.0845746934  -0.0685570670
	    N    -0.5335973739  -1.0094551252  -2.4010371296
	    N     0.5882434015   0.9896630788  -2.3212580669
	    H     0.5355691068   0.9545518722  -3.3403110566
	    H     1.1418055545   1.7337429277  -1.8865995247
	    H     0.0486233510  -1.7949067650  -2.6782938232
	    H    -1.5631732494  -1.2135327800  -2.2930100252
18
Geometry for iteration 3
	    C    -0.1466055539   0.0396798268  -0.2186011773
	    C     1.2065340245   1.5426358147   0.0669542796
	    C     2.4667691758   1.8118050829   1.2855320313
	    C     2.4338643148   0.7272109229   2.4320622483
	    C     1.0803800013  -0.7430047931   2.1869104855
	    C    -0.2039955267  -1.0053787842   0.9745209337
	    C    -1.4394944934  -0.3234269291  -1.5067719290
	    H     1.1926454614   2.4376956026  -0.7770470257
	    H     3.4862059271   2.9692427657   1.5184563302
	    H     3.4233048845   0.9389166249   3.3899909353
	    H     1.0568171393  -1.5675990372   3.0827360051
	    H    -1.2705970584  -2.1295993634   0.7819828284
	    N    -3.0809115510  -1.5854318736  -1.5891276004
	    N    -1.2242345134   0.1849899395  -2.8560254779
	    H    -2.2657451432  -0.1125406850  -3.6841431812
	    H    -0.0230848463   0.9540363280  -3.1957628075
	    H    -2.8110787400  -2.8261648023  -2.0750639733
	    H    -3.8181155026  -1.3946086400  -0.3915739050
18
Geometry for iteration 4
	    C    -0.1239640230   0.0324586611  -0.1957004617
	    C     1.1174014168   1.4694770967   0.0129713541
	    C     2.2808292259   1.6793877587   1.1801153591
	    C     2.2568500785   0.6595216071   2.2831958583
	    C     1.0136031102  -0.7379201619   2.1076958288
	    C    -0.1726563260  -0.9516881274   0.9512905167
	    C    -1.3321088540  -0.2856551505  -1.4321130728
	    H     1.0949623367   2.3111828712  -0.8120400114
	    H     3.2203623314   2.7743103909   1.3616175651
	    H     3.1748644295   0.8351645027   3.1997233958
	    H     0.9986012449  -1.5182797415   2.9770984272
	    H    -1.1556875656  -2.0150347806   0.8028682319
	    N    -2.8844301062  -1.4546782529  -1.4914610632
	    N    -1.1462672122   0.1986553897  -2.7139581058
	    H    -2.1184101689  -0.0613490946  -3.4878706367
	    H    -0.0389782402   0.9105304069  -3.0458729782
	    H    -2.6104728568  -2.6122755036  -1.9352073882
	    H    -3.5118408208  -1.3153498722  -0.3373238190
18
Geometry for iteration 5
	    C    -0.1065004396   0.0319370580  -0.1571490946
	    C     1.0595365789   1.3437391205  -0.0565434811
	    C     2.1852615149   1.4058419456   0.9693371287
	    C     2.2217239006   0.4008326251   1.9846446247
	    C     1.0578250298  -0.8657468867   1.9076720890
	    C    -0.0901465131  -0.9424540666   0.9000701034
	    C    -1.3025079540  -0.1338383099  -1.2624501969
	    H     0.9915498537   2.1743430720  -0.8225388863
	    H     3.0793995093   2.3954572045   1.0839556279
	    H     3.1272244232   0.4758975445   2.7934014380
	    H     1.0923133771  -1.6424807243   2.7206760565
	    H    -1.0221154656  -1.9040873145   0.8185438098
	    N    -2.7949445873  -1.1557052370  -1.2372183016
	    N    -1.2247139747   0.3812487936  -2.4594856780
	    H    -2.1718646683   0.2270833748  -3.1142831386
	    H    -0.2277324007   1.0129961198  -2.8157075419
	    H    -2.5717274747  -2.1962929591  -1.7053353789
	    H    -3.2399227094  -1.0903133602  -0.1225601803
18
Geometry for iteration 6
	    C    -0.0874549008   0.0276525809  -0.1397024651
	    C     0.9359385132   1.2443414703  -0.1109466020
	    C     1.9583405248   1.2801309261   0.8495078996
	    C     2.0131648820   0.3192065597   1.8458324238
	    C     0.9922647282  -0.8496557447   1.8351982199
	    C    -0.0503661019  -0.9034319609   0.8952921404
	    C    -1.1801781152  -0.0978179294  -1.1815002192
	    H     0.8535073240   2.0327658015  -0.8645953357
	    H     2.7523871312   2.1970147607   0.9148078006
	    H     2.8466311162   0.3792695543   2.6072109141
	    H     1.0428301770  -1.5889834493   2.6343195452
	    H    -0.8775105050  -1.7955582696   0.8615237409
	    N    -2.5486647713  -1.0328916887  -1.1128377560
	    N    -1.1192908301   0.4142897885  -2.3492868406
	    H    -1.9808615599   0.2916192574  -2.9568611873
	    H    -0.2352230994   0.9839645806  -2.6811465414
	    H    -2.3322050480  -1.9855883247  -1.5294186170
	    H    -2.9206514651  -0.9978699126  -0.0923681200
18
Geometry for iteration 0
	    C    -0.1065004396   0.0319370580  -0.1571490946
	    C     1.0595365789   1.3437391205  -0.0565434811
	    C     2.1852615149   1.4058419456   0.9693371287
	    C     2.2217239006   0.4008326251   1.9846446247
	    C     1.0578250298  -0.8657468867   1.9076720890
	    C    -0.0901465131  -0.9424540666   0.9000701034
	    C    -1.3025079540  -0.1338383099  -1.2624501969
	    H     0.9915498537   2.1743430720  -0.8225388863
	    H     3.0793995093   2.3954572045   1.0839556279
	    H     3.1272244232   0.4758975445   2.7934014380
	    H     1.0923133771  -1.6424807243   2.7206760565
	    H    -1.0221154656  -1.9040873145   0.8185438098
	    N    -2.7949445873  -1.1557052370  -1.2372183016
	    N    -1.2247139747   0.3812487936  -2.4594856780
	    H    -2.1718646683   0.2270833748  -3.1142831386
	    H    -0.2277324007   1.0129961198  -2.8157075419
	    H    -2.5717274747  -2.1962929591  -1.7053353789
	    H    -3.2399227094  -1.0903133602  -0.1225601803
18
Geometry for iteration 1
	    C    -0.1016346920   0.0315016426  -0.1529515962
	    C     1.0326958800   1.3219831686  -0.0681805295
	    C     2.1352097766   1.3781589397   0.9425885618
	    C     2.1756392139   0.3823808281   1.9545486803
	    C     1.0433947015  -0.8619296217   1.8917572449
	    C    -0.0809767565  -0.9336787741   0.8999370940
	    C    -1.2748661640  -0.1258072871  -1.2437184061
	    H     0.9612624406   2.1432547419  -0.8320172817
	    H     3.0078906826   2.3520551701   1.0464755276
	    H     3.0654413401   0.4540352694   2.7527929119
	    H     1.0814063917  -1.6305919162   2.7021596894
	    H    -0.9905862356  -1.8803637848   0.8284860937
	    N    -2.7431221803  -1.1290895768  -1.2101506173
	    N    -1.2015607474   0.3889319031  -2.4364954613
	    H    -2.1308724843   0.2412335450  -3.0798691789
	    H    -0.2292276917   1.0071694705  -2.7874307133
	    H    -2.5181874204  -2.1497724582  -1.6673997066
	    H    -3.1692480549  -1.0710132601  -0.1155033126
18
Geometry for iteration 2
	    C    -0.0980854517   0.0312075702  -0.1497217221
	    C     1.0036761378   1.2989214679  -0.0805581432
	    C     2.0852055264   1.3508819662   0.9157685087
	    C     2.1302761509   0.3625967979   1.9263911482
	    C     1.0307284727  -0.8584397865   1.8780133552
	    C    -0.0722552646  -0.9264634915   0.9010223853
	    C    -1.2485099626  -0.1174927709  -1.2258659815
	    H     0.9284751466   2.1117195872  -0.8428609388
	    H     2.9359779704   2.3087322753   1.0088346409
	    H     3.0056167745   0.4320276337   2.7142267306
	    H     1.0727687000  -1.6196704744   2.6866346224
	    H    -0.9587789187  -1.8579259741   0.8400718637
	    N    -2.6896025554  -1.1018365423  -1.1822076059
	    N    -1.1787436401   0.3982379803  -2.4165915337
	    H    -2.0901883560   0.2573347395  -3.0496672455
	    H    -0.2312264935   1.0024128227  -2.7616517647
	    H    -2.4646349901  -2.1035109055  -1.6284478460
	    H    -3.0980412466  -1.0502748955  -0.1083614735
18
Geometry for iteration 3
	    C    -0.0955218151   0.0312819444  -0.1474705286
	    C     0.9730518944   1.2747238869  -0.0934005434
	    C     2.0357633079   1.3237245984   0.8895831800
	    C     2.0858137165   0.3419648533   1.8999996676
	    C     1.0195686314  -0.8547336150   1.8658180919
	    C    -0.0641560585  -0.9199109626   0.9023482266
	    C    -1.2234525842  -0.1092467079  -1.2088529155
	    H     0.8939221700   2.0795553245  -0.8545855668
	    H     2.8641269325   2.2650390904   0.9717141757
	    H     2.9474473566   0.4097549738   2.6776921331
	    H     1.0658412815  -1.6089460094   2.6731355847
	    H    -0.9269564070  -1.8356545020   0.8520579704
	    N    -2.6346631436  -1.0736852045  -1.1541121310
	    N    -1.1568145641   0.4081659304  -2.3986634731
	    H    -2.0509074735   0.2740522938  -3.0223230053
	    H    -0.2339842724   0.9982351622  -2.7376880738
	    H    -2.4104870999  -2.0575244089  -1.5893738979
	    H    -3.0259338726  -1.0283386480  -0.1008498947
18
Geometry for iteration 4
	    C    -0.0941874942   0.0316927060  -0.1463337061
	    C     0.9407104785   1.2492916950  -0.1066779016
	    C     1.9873140330   1.2967456971   0.8644982463
	    C     2.0426504427   0.3206236987   1.8756907370
	    C     1.0101375101  -0.8507705656   1.8554045568
	    C    -0.0569984532  -0.9140538605   0.9036361410
	    C    -1.2002520140  -0.1012394707  -1.1930362293
	    H     0.8575631184   2.0466860193  -0.8670901637
	    H     2.7926486755   2.2209474582   0.9355200695
	    H     2.8913863731   0.3873570042   2.6435984494
	    H     1.0607606264  -1.5984203923   2.6618110623
	    H    -0.8953016697  -1.8134994252   0.8641835267
	    N    -2.5779427064  -1.0443061176  -1.1260388879
	    N    -1.1361988187   0.4185289590  -2.3829173986
	    H    -2.0136336635   0.2912424834  -2.9983010414
	    H    -0.2376359037   0.9945862785  -2.7158600813
	    H    -2.3556262766  -2.0119539573  -1.5503105669
	    H    -2.9527362575  -1.0050002103  -0.0927478124
18
Geometry for iteration 5
	    C    -0.0942690781   0.0323194574  -0.1462679422
	    C     0.9068309916   1.2226982747  -0.1201963543
	    C     1.9403312108   1.2701561967   0.8409156088
	    C     2.0012311801   0.2988966930   1.8536246221
	    C     1.0024191826  -0.8466326525   1.8468507984
	    C    -0.0510544094  -0.9090030316   0.9046758345
	    C    -1.1795983704  -0.0937730694  -1.1787320785
	    H     0.8196911338   2.0132404463  -0.8800593875
	    H     2.7219225785   2.1766339973   0.9005571654
	    H     2.8379078593   0.3651314974   2.6121871676
	    H     1.0573919090  -1.5882580809   2.6526077347
	    H    -0.8639587977  -1.7915451093   0.8762836857
	    N    -2.5191717388  -1.0133849019  -1.0982675347
	    N    -1.1173375501   0.4290224003  -2.3694319779
	    H    -1.9789102244   0.3087254479  -2.9780144463
	    H    -0.2421244416   0.9913659441  -2.6963564309
	    H    -2.3001544808  -1.9669688280  -1.5114496898
	    H    -2.8784889544  -0.9801666815  -0.0838977752
18
Geometry for iteration 6
	    C    -0.0960917766   0.0328863143  -0.1471103956
	    C     0.8718249844   1.1952143214  -0.1336259590
	    C     1.8955030285   1.2445051275   0.8192414489
	    C     1.9622239835   0.2773500167   1.8339197612
	    C     0.9961927057  -0.8426334097   1.8402192425
	    C    -0.0467241013  -0.9051570258   0.9053284906
	    C    -1.1626174759  -0.0873955268  -1.1663253596
	    H     0.7808999175   1.9796508569  -0.8929724571
	    H     2.6525421421   2.1326851677   0.8670420971
	    H     2.7877490383   0.3436325563   2.5836822876
	    H     1.0553498547  -1.5789602373   2.6453915472
	    H    -0.8331523674  -1.7702702575   0.8883580594
	    N    -2.4580212971  -0.9805301822  -1.0711239654
	    N    -1.1007451204   0.4392788656  -2.3583864048
	    H    -1.9472112223   0.3264866668  -2.9622740409
	    H    -0.2471330118   0.9884557080  -2.6793705584
	    H    -2.2445628127  -1.9228736321  -1.4728690608
	    H    -2.8033684694  -0.9538673299  -0.0740957328
18
Geometry for iteration 7
	    C    -0.1002336804   0.0328525374  -0.1484570687
	    C     0.8366360102   1.1676027141  -0.1464055970
	    C     1.8540093486   1.2210494013   0.7999460850
	    C     1.9268358124   0.2571148791   1.8165718612
	    C     0.9909326316  -0.8394485428   1.8355257493
	    C    -0.0445547419  -0.9033903003   0.9055159144
	    C    -1.1512510357  -0.0831243075  -1.1562958909
	    H     0.7424410430   1.9470470077  -0.9049038429
	    H     2.5856511467   2.0906198113   0.8350442316
	    H     2.7422021137   0.3239436551   2.5582549079
	    H     1.0538915017  -1.5715922751   2.6398174387
	    H    -0.8031866046  -1.7509839761   0.9007077179
	    N    -2.3944706231  -0.9453664186  -1.0451526241
	    N    -1.0869031746   0.4487889030  -2.3499558583
	    H    -1.9186180003   0.3449162450  -2.9525467116
	    H    -0.2516638045   0.9855522081  -2.6648438613
	    H    -2.1907063162  -1.8804320347  -1.4345140366
	    H    -2.7283536267  -0.9266915068  -0.0632794147
18
Geometry for iteration 8
	    C    -0.1077463416   0.0314297477  -0.1493864335
	    C     0.8036322167   1.1420090675  -0.1575044178
	    C     1.8182899956   1.2028679459   0.7839002958
	    C     1.8977336636   0.2406627362   1.8012831123
	    C     0.9858167672  -0.8381279353   1.8326168140
	    C    -0.0449796475  -0.9054005398   0.9049828204
	    C    -1.1490954152  -0.0827929407  -1.1492932065
	    H     0.7072777236   1.9185668295  -0.9139074879
	    H     2.5241234821   2.0546109133   0.8045517290
	    H     2.7039646009   0.3083024014   2.5361340298
	    H     1.0519809746  -1.5682104394   2.6348301369
	    H    -0.7742101410  -1.7372075311   0.9140787468
	    N    -2.3308321746  -0.9083255032  -1.0215048059
	    N    -1.0755336060   0.4568764409  -2.3441188688
	    H    -1.8914190401   0.3657987328  -2.9518969292
	    H    -0.2523977028   0.9814905057  -2.6518238143
	    H    -2.1459379285  -1.8424126491  -1.3959148972
	    H    -2.6580094268  -0.9016797823  -0.0519978239
18
Geometry for iteration 9
	    C    -0.1199689064   0.0317712184  -0.1469556083
	    C     0.7805589283   1.1257698987  -0.1648420160
	    C     1.7929087532   1.1994932977   0.7758999463
	    C     1.8824457460   0.2329476608   1.7871958157
	    C     0.9812473682  -0.8373274495   1.8309322166
	    C    -0.0431814062  -0.9138875207   0.8999227157
	    C    -1.1610669049  -0.0860097501  -1.1457021719
	    H     0.6832918914   1.9059085163  -0.9138685614
	    H     2.4772624327   2.0387754976   0.7785648732
	    H     2.6793665359   0.3010086971   2.5198383853
	    H     1.0522340565  -1.5725425657   2.6252587044
	    H    -0.7414545267  -1.7409281649   0.9252617133
	    N    -2.2891074934  -0.8758734417  -1.0026566410
	    N    -1.0600991315   0.4624268570  -2.3406823973
	    H    -1.8551830218   0.3952791948  -2.9675886011
	    H    -0.2336162049   0.9660696241  -2.6397488890
	    H    -2.1464249490  -1.8207593497  -1.3542768121
	    H    -2.6165551674  -0.8936642201  -0.0415236725
18
Geometry for iteration 10
	    C    -0.1289434620   0.0477478732  -0.1406969574
	    C     0.7745035588   1.1295477366  -0.1632983361
	    C     1.7810117310   1.2126660662   0.7868011910
	    C     1.8862441501   0.2306542707   1.7813090839
	    C     0.9853091471  -0.8310950321   1.8288237703
	    C    -0.0287549781  -0.9198557515   0.8844918152
	    C    -1.1701563833  -0.0761570839  -1.1431976756
	    H     0.6700518394   1.9230421283  -0.8976547855
	    H     2.4656383644   2.0523258083   0.7801205905
	    H     2.6775005843   0.2982151420   2.5200329982
	    H     1.0698570743  -1.5834689245   2.6059768954
	    H    -0.7118215424  -1.7607459277   0.9102932260
	    N    -2.3170265501  -0.8664239022  -0.9925344635
	    N    -1.0374950906   0.4568451111  -2.3449708673
	    H    -1.8178675518   0.4056186069  -2.9915492787
	    H    -0.1913542810   0.9235096681  -2.6459747423
	    H    -2.2082740296  -1.8230906261  -1.3243710052
	    H    -2.6357645803  -0.9008771633  -0.0285724590
18
Geometry for iteration 11
	    C    -0.1459466734   0.0583551465  -0.1310503036
	    C     0.7602319539   1.1519835429  -0.1457999388
	    C     1.7645936592   1.2345457836   0.8069383027
	    C     1.8899112111   0.2314965476   1.7777652182
	    C     0.9895255162  -0.8449435146   1.8134493968
	    C    -0.0204488708  -0.9359716371   0.8646296546
	    C    -1.1781787784  -0.0741533961  -1.1414113132
	    H     0.6344128881   1.9677581995  -0.8536064480
	    H     2.4508563365   2.0789657966   0.8015807547
	    H     2.6797515958   0.2982844391   2.5204352285
	    H     1.0980821648  -1.6237969123   2.5622843600
	    H    -0.6901497888  -1.7942784660   0.8742039633
	    N    -2.3297237804  -0.8177794388  -0.9831855760
	    N    -1.0222023867   0.4126501308  -2.3590667132
	    H    -1.7957020644   0.3624966771  -3.0156526788
	    H    -0.1528473668   0.8319949233  -2.6731633005
	    H    -2.2381022389  -1.7878879553  -1.2826983980
	    H    -2.6314053772  -0.8312618668  -0.0106232087
18
Geometry for iteration 12
	    C    -0.1456551032   0.0598334209  -0.1313427585
	    C     0.7338886126   1.1651584127  -0.1272593321
	    C     1.7464868617   1.2464489996   0.8196244594
	    C     1.8882513064   0.2335696488   1.7773053806
	    C     1.0279085370  -0.8712513480   1.7778363926
	    C    -0.0062408414  -0.9453105495   0.8509378988
	    C    -1.1772694347  -0.0730662414  -1.1442197001
	    H     0.6042905476   1.9787355240  -0.8363521148
	    H     2.4110686727   2.1042180717   0.8271569327
	    H     2.6731175388   0.3045408526   2.5248863915
	    H     1.1348917139  -1.6471252405   2.5288661453
	    H    -0.6626059008  -1.8095197268   0.8541404134
	    N    -2.3537440853  -0.7843794708  -0.9699372589
	    N    -0.9931288850   0.3856400374  -2.3698954810
	    H    -1.7582049638   0.3501626195  -3.0379785807
	    H    -0.1044589490   0.7619816176  -2.6833458221
	    H    -2.2988036199  -1.7680996838  -1.2390277539
	    H    -2.6571340075  -0.7730789442   0.0036337877
18
Geometry for iteration 12
	    C    -0.1458297289   0.0590668129  -0.1312111909
	    C     0.7471256400   1.1587329814  -0.1365829789
	    C     1.7556478836   1.2406238484   0.8132195778
	    C     1.8892478287   0.2326584992   1.7776021801
	    C     1.0086022628  -0.8585639430   1.7959844147
	    C    -0.0135125913  -0.9407783674   0.8578013850
	    C    -1.1777441549  -0.0735787812  -1.1428480673
	    H     0.6193865001   1.9733797562  -0.8450680215
	    H     2.4311179625   2.0919166937   0.8141111833
	    H     2.6766769187   0.3016766976   2.5226569496
	    H     1.1163998076  -1.6358711546   2.5459766545
	    H    -0.6766223635  -1.8020460646   0.8642437173
	    N    -2.3419741025  -0.8012927505  -0.9763620094
	    N    -1.0075271917   0.3994353595  -2.3647278288
	    H    -1.7770471984   0.3568600741  -3.0269665338
	    H    -0.1280634900   0.7973959850  -2.6788649206
	    H    -2.2685989523  -1.7787997860  -1.2607626955
	    H    -2.6446270304  -0.8023578605  -0.0031728156
18
Geometry for iteration 13
	    C    -0.1510204496   0.0619206069  -0.1262018682
	    C     0.7357250347   1.1605627278  -0.1327855615
	    C     1.7628935162   1.2307792138   0.7996544027
	    C     1.8874859189   0.2334076856   1.7754126172
	    C     0.9889281591  -0.8394802998   1.8157283244
	    C    -0.0323075192  -0.9252051153   0.8760503317
	    C    -1.1790229264  -0.0750163434  -1.1421683678
	    H     0.6122107057   1.9653104583  -0.8529584442
	    H     2.4527463248   2.0679596393   0.7826457088
	    H     2.6887294537   0.2930745700   2.5069696055
	    H     1.1190958673  -1.6331941100   2.5444986181
	    H    -0.7046517675  -1.7767388942   0.8936505988
	    N    -2.3329991864  -0.8250867046  -0.9867634967
	    N    -1.0068067897   0.4190862676  -2.3548411217
	    H    -1.7688208793   0.3774368025  -3.0263660415
	    H    -0.1280541299   0.8280256881  -2.6534906070
	    H    -2.2475232767  -1.7988202282  -1.2820011916
	    H    -2.6339500556  -0.8455639643  -0.0120045071
18
Geometry for iteration 13
	    C    -0.1484927205   0.0604639391  -0.1287314519
	    C     0.7413775210   1.1596414549  -0.1346841740
	    C     1.7593996932   1.2358360022   0.8064810250
	    C     1.8884576593   0.2330565522   1.7765220342
	    C     0.9987003944  -0.8490986746   1.8058205646
	    C    -0.0229896066  -0.9331125171   0.8669441257
	    C    -1.1784587678  -0.0742877533  -1.1425434468
	    H     0.6157866804   1.9694099068  -0.8490268153
	    H     2.4421678834   2.0802003102   0.7984349028
	    H     2.6829199423   0.2975054423   2.5148393811
	    H     1.1179294724  -1.6346960925   2.5454829804
	    H    -0.6907282579  -1.7895911045   0.8790404087
	    N    -2.3376853353  -0.8132264928  -0.9815787190
	    N    -1.0070988449   0.4093170927  -2.3598908559
	    H    -1.7728571150   0.3671428966  -3.0268329675
	    H    -0.1279124800   0.8128345587  -2.6662663475
	    H    -2.2582650741  -1.7889054613  -1.2714419057
	    H    -2.6395930443  -0.8240320597  -0.0075397389
18
Geometry for iteration 14
	    C    -0.1336007769   0.0476644277  -0.1401121109
	    C     0.7749724915   1.1259067835  -0.1727380629
	    C     1.7765907376   1.2162540791   0.7864223405
	    C     1.8898052649   0.2280982318   1.7724087762
	    C     0.9906496115  -0.8386527347   1.8145203482
	    C    -0.0272873374  -0.9283948012   0.8739051329
	    C    -1.1783637486  -0.0759721060  -1.1415545068
	    H     0.6426158653   1.9316402541  -0.8897915115
	    H     2.4545252730   2.0613841546   0.7840153645
	    H     2.6747141150   0.3019297731   2.5201241885
	    H     1.0687564385  -1.5867387952   2.6003115581
	    H    -0.7221843218  -1.7606674036   0.9106091662
	    N    -2.3191278213  -0.8531807524  -0.9878478164
	    N    -1.0322963295   0.4556611039  -2.3414436036
	    H    -1.8017667276   0.4174593527  -3.0040490894
	    H    -0.1659161918   0.8900318073  -2.6346265091
	    H    -2.2213755296  -1.8147493112  -1.3148478748
	    H    -2.6080530127  -0.8992160633  -0.0102767896
18
Geometry for iteration 14
	    C    -0.1409852412   0.0543663030  -0.1345984562
	    C     0.7583860442   1.1432998759  -0.1538859978
	    C     1.7681916791   1.2262596161   0.7965439562
	    C     1.8891207573   0.2305982103   1.7745775470
	    C     0.9945231195  -0.8438416661   1.8101385260
	    C    -0.0252023469  -0.9306671947   0.8702953077
	    C    -1.1784498641  -0.0750183145  -1.1422205725
	    H     0.6295157789   1.9511033163  -0.8695669733
	    H     2.4487239690   2.0708774382   0.7915504019
	    H     2.6787272444   0.2994878226   2.5177915063
	    H     1.0931031139  -1.6117360585   2.5735262216
	    H    -0.7067145141  -1.7754516276   0.8948567717
	    N    -2.3285006089  -0.8334634804  -0.9841387292
	    N    -1.0198006246   0.4327174771  -2.3514690887
	    H    -1.7874957155   0.3922120578  -3.0161482015
	    H    -0.1470311847   0.8520987877  -2.6517607784
	    H    -2.2395057824  -1.8025697120  -1.2924848364
	    H    -2.6239478239  -0.8618148510  -0.0079776044
18
Geometry for iteration 15
	    C    -0.1441753810   0.0566831759  -0.1293723221
	    C     0.7429270774   1.1568467121  -0.1367702254
	    C     1.7591918167   1.2334575556   0.8049953905
	    C     1.8934627055   0.2272857241   1.7704751185
	    C     0.9984267539  -0.8444612113   1.8094629496
	    C    -0.0152513241  -0.9377107806   0.8648088772
	    C    -1.1768590318  -0.0755436155  -1.1422013964
	    H     0.6205895446   1.9580755962  -0.8605158589
	    H     2.4361542974   2.0803488335   0.8049410708
	    H     2.6916335337   0.2896554665   2.5038082065
	    H     1.0980159564  -1.6100950234   2.5726186352
	    H    -0.6767576731  -1.7977292875   0.8694015244
	    N    -2.3375643956  -0.8199615880  -0.9823917718
	    N    -1.0102543380   0.4160144552  -2.3561186671
	    H    -1.7757281848   0.3700212498  -3.0217608623
	    H    -0.1358736776   0.8292322480  -2.6556428892
	    H    -2.2547907402  -1.7919477739  -1.2774544115
	    H    -2.6504889393  -0.8217137365  -0.0132543680
18
Geometry for iteration 15
	    C    -0.1425711654   0.0555864088  -0.1320198560
	    C     0.7507033995   1.1501828586  -0.1453562755
	    C     1.7637309344   1.2299184464   0.8007770724
	    C     1.8913223804   0.2289236907   1.7725707322
	    C     0.9964711883  -0.8441633200   1.8097980340
	    C    -0.0202556363  -0.9342101649   0.8675328303
	    C    -1.1776483480  -0.0752477210  -1.1422530109
	    H     0.6250923171   1.9547207174  -0.8650964929
	    H     2.4424694996   2.0756926653   0.7982710314
	    H     2.6852293940   0.2944946384   2.5109017708
	    H     1.0955431799  -1.6109407850   2.5730590259
	    H    -0.6918892354  -1.7868158732   0.8821249922
	    N    -2.3330367708  -0.8267468876  -0.9832151127
	    N    -1.0150147063   0.4243981210  -2.3539070418
	    H    -1.7815855005   0.3811067997  -3.0190942164
	    H    -0.1414413453   0.8407125740  -2.6538318155
	    H    -2.2471071064  -1.7973526705  -1.2848980092
	    H    -2.6373544788  -0.8418014983  -0.0103346582
18
Geometry for iteration 16
	    C    -0.1362416438   0.0522109213  -0.1358907222
	    C     0.7555869970   1.1495225004  -0.1459879742
	    C     1.7518187681   1.2402025138   0.8143449500
	    C     1.8842990980   0.2345762519   1.7806452896
	    C     1.0113194004  -0.8561972152   1.7969562472
	    C    -0.0097859287  -0.9410809514   0.8597832728
	    C    -1.1741247070  -0.0749665120  -1.1440427546
	    H     0.6179771544   1.9640861818  -0.8518937970
	    H     2.4165314074   2.0970902280   0.8271123037
	    H     2.6703205243   0.3060550622   2.5251897013
	    H     1.1348769508  -1.6425242357   2.5336752166
	    H    -0.6723661164  -1.7995216457   0.8636603421
	    N    -2.3455346560  -0.8003707083  -0.9728703533
	    N    -1.0052552545   0.3989340101  -2.3643400994
	    H    -1.7740253445   0.3550490077  -3.0255581570
	    H    -0.1266801403   0.7963882422  -2.6726379256
	    H    -2.2778271716  -1.7757123485  -1.2580514036
	    H    -2.6582313377  -0.7852833028  -0.0050651365
18
Geometry for iteration 16
	    C    -0.1394301310   0.0539135674  -0.1339642542
	    C     0.7531126876   1.1498663143  -0.1456950175
	    C     1.7578582283   1.2351920957   0.8075500220
	    C     1.8879039376   0.2318580449   1.7765923980
	    C     1.0038712570  -0.8502713428   1.8034139712
	    C    -0.0150368999  -0.9376431718   0.8636455699
	    C    -1.1759188736  -0.0750848754  -1.1431552832
	    H     0.6215586015   1.9595352861  -0.8585471436
	    H     2.4296712383   2.0866165264   0.8126813701
	    H     2.6779264768   0.3004437178   2.5180075330
	    H     1.1151015090  -1.6272202624   2.5535676138
	    H    -0.6821666354  -1.7932157788   0.8728775577
	    N    -2.3394585857  -0.8136633917  -0.9779665855
	    N    -1.0100114195   0.4117631739  -2.3592392586
	    H    -1.7776558096   0.3681468048  -3.0224776245
	    H    -0.1338484253   0.8186989709  -2.6633959602
	    H    -2.2626356737  -1.7867876762  -1.2714301741
	    H    -2.6481834823  -0.8136900030  -0.0074357343
18
Geometry for iteration 17
	    C    -0.1457773373   0.0588064072  -0.1299515193
	    C     0.7492262706   1.1546160443  -0.1408726212
	    C     1.7605064170   1.2344605054   0.8052493660
	    C     1.8878698330   0.2326031389   1.7761707561
	    C     1.0002927418  -0.8504637242   1.8040717813
	    C    -0.0215504712  -0.9340298406   0.8661067925
	    C    -1.1794534449  -0.0724353678  -1.1407865731
	    H     0.6226266425   1.9641461178  -0.8550116117
	    H     2.4433800103   2.0790007429   0.7986810991
	    H     2.6797918468   0.2983126148   2.5155143928
	    H     1.1063546953  -1.6243703237   2.5556512176
	    H    -0.6900885555  -1.7889450999   0.8768436422
	    N    -2.3353278981  -0.8172808958  -0.9806610605
	    N    -1.0125885389   0.4144992217  -2.3562727144
	    H    -1.7782971878   0.3697799060  -3.0218543343
	    H    -0.1351218666   0.8209050908  -2.6615645167
	    H    -2.2531794845  -1.7887324501  -1.2776830197
	    H    -2.6360056725  -0.8324140876  -0.0086020766
18
Geometry for iteration 18
	    C    -0.1417410104   0.0546034960  -0.1333118552
	    C     0.7507540181   1.1511437290  -0.1440389598
	    C     1.7609784726   1.2327486034   0.8040001104
	    C     1.8891916594   0.2312624684   1.7750754906
	    C     1.0010654270  -0.8497984111   1.8047621610
	    C    -0.0177140381  -0.9370075001   0.8638847344
	    C    -1.1760967330  -0.0767599884  -1.1435881038
	    H     0.6218585816   1.9602218332  -0.8580841926
	    H     2.4367660288   2.0818307624   0.8037172294
	    H     2.6772814676   0.3010633956   2.5189085530
	    H     1.1075996843  -1.6233298224   2.5579638165
	    H    -0.6891928720  -1.7900748118   0.8781313955
	    N    -2.3356452553  -0.8169711022  -0.9804196040
	    N    -1.0122915147   0.4161383176  -2.3572691698
	    H    -1.7800691765   0.3754115074  -3.0212957367
	    H    -0.1356043837   0.8244192291  -2.6620884257
	    H    -2.2569115020  -1.7906030721  -1.2738879203
	    H    -2.6375708538  -0.8258406340  -0.0074305230
18
Geometry for iteration 19
	    C    -0.1429687300   0.0557563831  -0.1321391620
	    C     0.7506841037   1.1512448169  -0.1443466567
	    C     1.7601794330   1.2331880532   0.8045697095
	    C     1.8877764967   0.2319924045   1.7760344324
	    C     0.9990803377  -0.8479241653   1.8064829377
	    C    -0.0200352408  -0.9348454198   0.8662188381
	    C    -1.1763343634  -0.0765564108  -1.1433623106
	    H     0.6226968164   1.9591167141  -0.8598079704
	    H     2.4401362905   2.0785114646   0.8003628190
	    H     2.6808997130   0.2975287875   2.5149173524
	    H     1.1050451067  -1.6208052743   2.5607596664
	    H    -0.6895426763  -1.7890965827   0.8784537072
	    N    -2.3347459912  -0.8199116815  -0.9816456340
	    N    -1.0129584508   0.4184521512  -2.3561453858
	    H    -1.7799465846   0.3760622223  -3.0208582420
	    H    -0.1372940301   0.8289841677  -2.6594847889
	    H    -2.2532357037  -1.7928980089  -1.2763421892
	    H    -2.6367785270  -0.8303416220  -0.0086381232
18
Geometry for iteration 20
	    C    -0.1429687300   0.0557563831  -0.1321391620
	    C     0.7506841037   1.1512448169  -0.1443466567
	    C     1.7601794330   1.2331880532   0.8045697095
	    C     1.8877764967   0.2319924045   1.7760344324
	    C     0.9990803377  -0.8479241653   1.8064829377
	    C    -0.0200352408  -0.9348454198   0.8662188381
	    C    -1.1763343634  -0.0765564108  -1.1433623106
	    H     0.6226968164   1.9591167141  -0.8598079704
	    H     2.4401362905   2.0785114646   0.8003628190
	    H     2.6808997130   0.2975287875   2.5149173524
	    H     1.1050451067  -1.6208052743   2.5607596664
	    H    -0.6895426763  -1.7890965827   0.8784537072
	    N    -2.3347459912  -0.8199116815  -0.9816456340
	    N    -1.0129584508   0.4184521512  -2.3561453858
	    H    -1.7799465846   0.3760622223  -3.0208582420
	    H    -0.1372940301   0.8289841677  -2.6594847889
	    H    -2.2532357037  -1.7928980089  -1.2763421892
	    H    -2.6367785270  -0.8303416220  -0.0086381232
