18
Geometry for iteration 0
	    C     0.0000000000   0.0000000000  -0.1778640000
	    C     0.0366780000   1.2193740000   0.5241650000
	    C     0.0317650000   1.2131200000   1.9154440000
	    C     0.0000000000   0.0000000000   2.6101070000
	    C    -0.0317650000  -1.2131200000   1.9154440000
	    C    -0.0366780000  -1.2193750000   0.5241650000
	    C     0.0000000000   0.0000000000  -1.6447340000
	    H     0.0181700000   2.1647050000  -0.0108540000
	    H     0.0424020000   2.1528950000   2.4578860000
	    H     0.0000000000   0.0000000000   3.6957560000
	    H    -0.0424020000  -2.1528950000   2.4578860000
	    H    -0.0181700000  -2.1647050000  -0.0108530000
	    N    -1.1406120000  -0.1659320000  -2.3084610000
	    N     1.1406120000   0.1659320000  -2.3084610000
	    H     1.1814630000   0.2657760000  -3.3159970000
	    H     2.0219320000   0.1286370000  -1.8133170000
	    H    -2.0219320000  -0.1286370000  -1.8133160000
	    H    -1.1814630000  -0.2657750000  -3.3159970000
18
Geometry for iteration 1
	    C     0.0352500138  -0.0145126765  -0.1751657110
	    C     0.0694633677   1.2093070371   0.5107691347
	    C     0.0470740884   1.2095046303   1.9040228519
	    C    -0.0111573333   0.0017181340   2.6054401366
	    C    -0.0588085016  -1.2138011822   1.9170421173
	    C    -0.0473408889  -1.2294128808   0.5237385891
	    C     0.0155756315  -0.0217228141  -1.6525144633
	    H     0.1119224880   2.1478748765  -0.0387929769
	    H     0.0786664894   2.1526661893   2.4403224529
	    H    -0.0260012074   0.0079321558   3.6910971348
	    H    -0.1149821714  -2.1506421135   2.4638100567
	    H    -0.0943435452  -2.1744600217  -0.0145323331
	    N    -1.1347428011  -0.2021185905  -2.2869109269
	    N     1.1392453325   0.2129614053  -2.3191385872
	    H     1.1787431495   0.2931244538  -3.3302709898
	    H     2.0189369290   0.2868703513  -1.8103660980
	    H    -1.9968600764  -0.2703520413  -1.7472872010
	    H    -1.2106409644  -0.2449369130  -3.3002641867
18
Geometry for iteration 2
	    C     0.0548655472  -0.0114807003  -0.1739031021
	    C     0.0874200039   1.2121059943   0.5100296623
	    C     0.0493047669   1.2097711955   1.9036021276
	    C    -0.0226740195   0.0013659332   2.6018266520
	    C    -0.0695455141  -1.2131154665   1.9122104974
	    C    -0.0471786075  -1.2270079218   0.5184148426
	    C     0.0201603121  -0.0108128410  -1.6561381363
	    H     0.1408718424   2.1484520921  -0.0387943944
	    H     0.0721214853   2.1520765349   2.4417116397
	    H    -0.0467654723   0.0064196446   3.6871638674
	    H    -0.1285023019  -2.1499107475   2.4572100469
	    H    -0.0947080002  -2.1675006332  -0.0236950720
	    N    -1.1362341254  -0.1959565990  -2.2733674879
	    N     1.1386626516   0.2160665571  -2.3274315943
	    H     1.1834415289   0.2750557953  -3.3399918600
	    H     2.0091093909   0.3103369493  -1.8168799400
	    H    -1.9763241530  -0.3239622285  -1.7174609515
	    H    -1.2340253354  -0.2319035585  -3.2835077974
18
Geometry for iteration 3
	    C     0.0472369557  -0.0162295993  -0.1740416675
	    C     0.0869625373   1.2088868854   0.5076812369
	    C     0.0536898995   1.2092639351   1.9013631584
	    C    -0.0215290441   0.0022513055   2.6013906125
	    C    -0.0718035357  -1.2137337749   1.9144617739
	    C    -0.0513759227  -1.2305793002   0.5207109946
	    C     0.0189752771  -0.0175916462  -1.6569241155
	    H     0.1406668240   2.1441901354  -0.0418632894
	    H     0.0812519286   2.1520942139   2.4382187712
	    H    -0.0437832398   0.0094552083   3.6867216540
	    H    -0.1290527966  -2.1490641796   2.4617885224
	    H    -0.0926488949  -2.1724164467  -0.0187479809
	    N    -1.1372535388  -0.1942823381  -2.2769034479
	    N     1.1381287613   0.2164686210  -2.3242047834
	    H     1.1859196983   0.2822181190  -3.3357948980
	    H     2.0038753068   0.3222917173  -1.8109390249
	    H    -1.9758200573  -0.3248256588  -1.7255414205
	    H    -1.2334401588  -0.2283971971  -3.2863770959
18
Geometry for iteration 4
	    C     0.0477783121  -0.0146797385  -0.1740055415
	    C     0.0857467271   1.2100386074   0.5084632071
	    C     0.0527557954   1.2094571307   1.9021534960
	    C    -0.0204958323   0.0019239213   2.6015456265
	    C    -0.0705733410  -1.2135621206   1.9138217120
	    C    -0.0502643814  -1.2294369788   0.5200162669
	    C     0.0187316470  -0.0143730695  -1.6567935056
	    H     0.1376184369   2.1459844172  -0.0405477798
	    H     0.0804176278   2.1519193393   2.4396344330
	    H    -0.0431179018   0.0083980347   3.6869003126
	    H    -0.1293453260  -2.1492001937   2.4606155437
	    H    -0.0931835562  -2.1710645244  -0.0200625580
	    N    -1.1374866677  -0.1923345368  -2.2766575504
	    N     1.1386926581   0.2147556481  -2.3245855683
	    H     1.1860442548   0.2793213323  -3.3362527971
	    H     2.0055255313   0.3185672749  -1.8116754649
	    H    -1.9760913034  -0.3252298156  -1.7252738403
	    H    -1.2327526808  -0.2304847280  -3.2862969919
18
Geometry for iteration 5
	    C     0.0472843313  -0.0147754188  -0.1739841394
	    C     0.0854529646   1.2099696287   0.5084238733
	    C     0.0525026204   1.2094913373   1.9021159159
	    C    -0.0204569314   0.0019713063   2.6015806477
	    C    -0.0702107673  -1.2135321278   1.9138875126
	    C    -0.0502100160  -1.2294683275   0.5200667781
	    C     0.0185374814  -0.0143889717  -1.6567676078
	    H     0.1367256889   2.1459328619  -0.0406450561
	    H     0.0800389933   2.1519795739   2.4395627553
	    H    -0.0424634234   0.0084302095   3.6869504671
	    H    -0.1282437711  -2.1491948058   2.4607208065
	    H    -0.0927663692  -2.1711786700  -0.0199265330
	    N    -1.1375130809  -0.1919854578  -2.2770444503
	    N     1.1386237254   0.2144430778  -2.3242961461
	    H     1.1859966132   0.2798995732  -3.3359288367
	    H     2.0051773729   0.3195865750  -1.8110858029
	    H    -1.9762327718  -0.3262517405  -1.7258794141
	    H    -1.2322426603  -0.2309286234  -3.2867517700
18
Geometry for iteration 6
	    C     0.0472843313  -0.0147754188  -0.1739841394
	    C     0.0854529646   1.2099696287   0.5084238733
	    C     0.0525026204   1.2094913373   1.9021159159
	    C    -0.0204569314   0.0019713063   2.6015806477
	    C    -0.0702107673  -1.2135321278   1.9138875126
	    C    -0.0502100160  -1.2294683275   0.5200667781
	    C     0.0185374814  -0.0143889717  -1.6567676078
	    H     0.1367256889   2.1459328619  -0.0406450561
	    H     0.0800389933   2.1519795739   2.4395627553
	    H    -0.0424634234   0.0084302095   3.6869504671
	    H    -0.1282437711  -2.1491948058   2.4607208065
	    H    -0.0927663692  -2.1711786700  -0.0199265330
	    N    -1.1375130809  -0.1919854578  -2.2770444503
	    N     1.1386237254   0.2144430778  -2.3242961461
	    H     1.1859966132   0.2798995732  -3.3359288367
	    H     2.0051773729   0.3195865750  -1.8110858029
	    H    -1.9762327718  -0.3262517405  -1.7258794141
	    H    -1.2322426603  -0.2309286234  -3.2867517700
