18
Geometry for iteration 0
	    C     0.0000000000   0.0000000000  -0.1778640000
	    C     0.0366780000   1.2193740000   0.5241650000
	    C     0.0317650000   1.2131200000   1.9154440000
	    C     0.0000000000   0.0000000000   2.6101070000
	    C    -0.0317650000  -1.2131200000   1.9154440000
	    C    -0.0366780000  -1.2193750000   0.5241650000
	    C     0.0000000000   0.0000000000  -1.6447340000
	    H     0.0181700000   2.1647050000  -0.0108540000
	    H     0.0424020000   2.1528950000   2.4578860000
	    H     0.0000000000   0.0000000000   3.6957560000
	    H    -0.0424020000  -2.1528950000   2.4578860000
	    H    -0.0181700000  -2.1647050000  -0.0108530000
	    N    -1.0707650000   0.4266050000  -2.3084600000
	    N     1.0707650000  -0.4266050000  -2.3084610000
	    H     1.1560650000  -0.3605630000  -3.3159970000
	    H     1.8153630000  -0.8995630000  -1.8133170000
	    H    -1.8153630000   0.8995630000  -1.8133160000
	    H    -1.1560650000   0.3605640000  -3.3159970000
18
Geometry for iteration 1
	    C    -0.0180146802   0.0089456101  -0.1755158864
	    C     0.0080246847   1.2259655468   0.5222552261
	    C     0.0251424794   1.2122831468   1.9156247660
	    C     0.0046198610  -0.0026673070   2.6060038312
	    C    -0.0191049834  -1.2120599946   1.9060663677
	    C    -0.0165433305  -1.2144039405   0.5126978729
	    C    -0.0015429310   0.0141983963  -1.6519002887
	    H     0.0332406960   2.1706169953  -0.0164565357
	    H     0.0607197025   2.1501557346   2.4609806411
	    H     0.0113520717  -0.0071209259   3.6916129701
	    H    -0.0416811817  -2.1544544159   2.4438449243
	    H    -0.0360296289  -2.1544400733  -0.0339715101
	    N    -1.0679863092   0.4414039644  -2.3143042040
	    N     1.0650117203  -0.4453914479  -2.2933113987
	    H     1.1329759318  -0.4783515495  -3.3100691849
	    H     1.8401968086  -0.8290112843  -1.7563223023
	    H    -1.8569710059   0.8224182024  -1.7955798343
	    H    -1.1234099054   0.4519133422  -3.3306554543
18
Geometry for iteration 2
	    C    -0.0467801942   0.0108463697  -0.1760022311
	    C    -0.0059133085   1.2281439032   0.5193309855
	    C     0.0214379569   1.2120430799   1.9130868188
	    C     0.0162556324  -0.0048604771   2.6001464014
	    C    -0.0053450936  -1.2141599340   1.8995806679
	    C    -0.0218098740  -1.2150557185   0.5057527281
	    C    -0.0103512487   0.0166040484  -1.6564124463
	    H     0.0154210094   2.1709296359  -0.0203987486
	    H     0.0546644597   2.1490003901   2.4599117728
	    H     0.0346633555  -0.0111460501   3.6855644728
	    H    -0.0079235685  -2.1576207008   2.4364816673
	    H    -0.0421173796  -2.1518643269  -0.0443403832
	    N    -1.0617140925   0.4660877207  -2.3252130511
	    N     1.0535817750  -0.4761892156  -2.2736183851
	    H     1.1210357226  -0.5799455920  -3.2838315686
	    H     1.8461790096  -0.7804159171  -1.7142499271
	    H    -1.8713175387   0.7895028923  -1.8053166243
	    H    -1.0899666228   0.5480998919  -3.3394721492
18
Geometry for iteration 3
	    C    -0.0501786966   0.0128006370  -0.1756103956
	    C    -0.0122482382   1.2296058029   0.5221592045
	    C     0.0227567893   1.2123529496   1.9155145754
	    C     0.0191334337  -0.0053114712   2.6011279847
	    C    -0.0051894530  -1.2142361209   1.8997749251
	    C    -0.0198125566  -1.2136931897   0.5063349291
	    C    -0.0087795174   0.0209022889  -1.6548490579
	    H     0.0018027910   2.1729899601  -0.0163675486
	    H     0.0578310446   2.1483734585   2.4636427019
	    H     0.0402531412  -0.0126098953   3.6865161111
	    H    -0.0073524140  -2.1575643456   2.4364428451
	    H    -0.0377476928  -2.1500096450  -0.0441355784
	    N    -1.0568388414   0.4704446513  -2.3293013972
	    N     1.0492511137  -0.4841403721  -2.2719923308
	    H     1.1134762411  -0.5888745580  -3.2789113568
	    H     1.8443451245  -0.7817288979  -1.7205403855
	    H    -1.8720003391   0.7861456879  -1.8186880936
	    H    -1.0787019300   0.5545530596  -3.3401171325
18
Geometry for iteration 4
	    C    -0.0543642092   0.0106476570  -0.1755776679
	    C    -0.0124457080   1.2278661278   0.5216486503
	    C     0.0228516619   1.2120059162   1.9148313799
	    C     0.0202677726  -0.0051318239   2.6013843817
	    C    -0.0042872266  -1.2147212016   1.9009237062
	    C    -0.0218212518  -1.2152281566   0.5077461592
	    C    -0.0115176166   0.0177441389  -1.6535991806
	    H     0.0008046882   2.1708353889  -0.0177124029
	    H     0.0597628159   2.1483836896   2.4622012841
	    H     0.0432587230  -0.0116150780   3.6867579300
	    H    -0.0061805879  -2.1574977866   2.4384827288
	    H    -0.0396765019  -2.1519751081  -0.0421055044
	    N    -1.0567557803   0.4707630012  -2.3307637065
	    N     1.0475942392  -0.4860974929  -2.2702644139
	    H     1.1136971382  -0.5851944639  -3.2775411819
	    H     1.8464198840  -0.7765902980  -1.7207959798
	    H    -1.8736162225   0.7872570184  -1.8234897734
	    H    -1.0739918180   0.5585484717  -3.3411264090
18
Geometry for iteration 5
	    C    -0.0544792585   0.0113043996  -0.1757441884
	    C    -0.0132000110   1.2282790952   0.5220337925
	    C     0.0218912417   1.2119782369   1.9151670783
	    C     0.0196469850  -0.0054020114   2.6013363275
	    C    -0.0046898248  -1.2147909985   1.9004366201
	    C    -0.0223321807  -1.2147960163   0.5073347278
	    C    -0.0102255310   0.0192355770  -1.6533160455
	    H    -0.0005196296   2.1714448921  -0.0170368655
	    H     0.0579791070   2.1482131231   2.4628348233
	    H     0.0423627320  -0.0122758602   3.6867100038
	    H    -0.0059950043  -2.1577556128   2.4377021548
	    H    -0.0395090593  -2.1513024319  -0.0429782502
	    N    -1.0548229340   0.4726616101  -2.3313005233
	    N     1.0474711859  -0.4886595060  -2.2692961089
	    H     1.1139031944  -0.5876573535  -3.2768125724
	    H     1.8462526734  -0.7796000664  -1.7194875153
	    H    -1.8722715474   0.7891463975  -1.8246283423
	    H    -1.0714621387   0.5599765254  -3.3419551162
18
Geometry for iteration 6
	    C    -0.0544792585   0.0113043996  -0.1757441884
	    C    -0.0132000110   1.2282790952   0.5220337925
	    C     0.0218912417   1.2119782369   1.9151670783
	    C     0.0196469850  -0.0054020114   2.6013363275
	    C    -0.0046898248  -1.2147909985   1.9004366201
	    C    -0.0223321807  -1.2147960163   0.5073347278
	    C    -0.0102255310   0.0192355770  -1.6533160455
	    H    -0.0005196296   2.1714448921  -0.0170368655
	    H     0.0579791070   2.1482131231   2.4628348233
	    H     0.0423627320  -0.0122758602   3.6867100038
	    H    -0.0059950043  -2.1577556128   2.4377021548
	    H    -0.0395090593  -2.1513024319  -0.0429782502
	    N    -1.0548229340   0.4726616101  -2.3313005233
	    N     1.0474711859  -0.4886595060  -2.2692961089
	    H     1.1139031944  -0.5876573535  -3.2768125724
	    H     1.8462526734  -0.7796000664  -1.7194875153
	    H    -1.8722715474   0.7891463975  -1.8246283423
	    H    -1.0714621387   0.5599765254  -3.3419551162
