18
Geometry for iteration 0
	    C     0.0000000000   0.0000000000  -0.1778640000
	    C     0.0366780000   1.2193740000   0.5241650000
	    C     0.0317650000   1.2131200000   1.9154440000
	    C     0.0000000000   0.0000000000   2.6101070000
	    C    -0.0317650000  -1.2131200000   1.9154440000
	    C    -0.0366780000  -1.2193750000   0.5241650000
	    C     0.0000000000   0.0000000000  -1.6447340000
	    H     0.0181700000   2.1647050000  -0.0108540000
	    H     0.0424020000   2.1528950000   2.4578860000
	    H     0.0000000000   0.0000000000   3.6957560000
	    H    -0.0424020000  -2.1528950000   2.4578860000
	    H    -0.0181700000  -2.1647050000  -0.0108530000
	    N    -0.7125900000  -0.9059500000  -2.3084610000
	    N     0.7125900000   0.9059500000  -2.3084600000
	    H     0.6734320000   1.0064700000  -3.3159970000
	    H     1.3771900000   1.4859700000  -1.8133160000
	    H    -1.3367890000  -0.6127860000  -3.0485380000
	    H    -0.6154510000  -1.9028040000  -2.1548000000
18
Geometry for iteration 1
	    C     0.0427448495  -0.0350305838  -0.1805575081
	    C     0.0970472173   1.1932411813   0.5078692551
	    C     0.0606838860   1.2072437671   1.8993569050
	    C    -0.0029708339   0.0056224838   2.6107799598
	    C    -0.0447940624  -1.2172078580   1.9319581012
	    C    -0.0324763157  -1.2430047958   0.5424493777
	    C     0.0519351708  -0.0390301632  -1.6494161920
	    H     0.1070668401   2.1323201266  -0.0391436163
	    H     0.0757334092   2.1550034307   2.4279285665
	    H    -0.0242571432   0.0211224132   3.6963895397
	    H    -0.0868613085  -2.1489847491   2.4876585107
	    H    -0.0430852048  -2.2005392629   0.0291629943
	    N    -0.6705057128  -0.9324970025  -2.3709834312
	    N     0.6790479335   0.9476985554  -2.2834072434
	    H     0.6350317202   1.0501483715  -3.2917419696
	    H     1.2317278810   1.6409258009  -1.7671785102
	    H    -1.2764640499  -0.6368788732  -3.1272624133
	    H    -0.7012222761  -1.9233038419  -2.1168863260
18
Geometry for iteration 2
	    C     0.0825937607  -0.0288890664  -0.1851947287
	    C     0.1235573610   1.1925996387   0.5202112862
	    C     0.0600660152   1.1934061383   1.9106430797
	    C    -0.0133045181  -0.0126688781   2.6114421769
	    C    -0.0463643723  -1.2279517091   1.9195990380
	    C    -0.0122651237  -1.2386164631   0.5308678307
	    C     0.0998721351  -0.0338060735  -1.6567583010
	    H     0.1301287501   2.1436426372  -0.0042571148
	    H     0.0590451160   2.1373461066   2.4463278895
	    H    -0.0553549354  -0.0065441926   3.6965302395
	    H    -0.1023159590  -2.1648517415   2.4649290662
	    H    -0.0294967047  -2.1936209228   0.0130394200
	    N    -0.5937598284  -0.9424014814  -2.3948107992
	    N     0.6704688878   0.9608210678  -2.3227960854
	    H     0.6484379835   0.9931663233  -3.3394909269
	    H     1.1444949327   1.7295194179  -1.8382732807
	    H    -1.2002127704  -0.6666884121  -3.1574433606
	    H    -0.8672087301  -1.8576133893  -1.9075894293
18
Geometry for iteration 0
	    C     0.0427448495  -0.0350305838  -0.1805575081
	    C     0.0970472173   1.1932411813   0.5078692551
	    C     0.0606838860   1.2072437671   1.8993569050
	    C    -0.0029708339   0.0056224838   2.6107799598
	    C    -0.0447940624  -1.2172078580   1.9319581012
	    C    -0.0324763157  -1.2430047958   0.5424493777
	    C     0.0519351708  -0.0390301632  -1.6494161920
	    H     0.1070668401   2.1323201266  -0.0391436163
	    H     0.0757334092   2.1550034307   2.4279285665
	    H    -0.0242571432   0.0211224132   3.6963895397
	    H    -0.0868613085  -2.1489847491   2.4876585107
	    H    -0.0430852048  -2.2005392629   0.0291629943
	    N    -0.6705057128  -0.9324970025  -2.3709834312
	    N     0.6790479335   0.9476985554  -2.2834072434
	    H     0.6350317202   1.0501483715  -3.2917419696
	    H     1.2317278810   1.6409258009  -1.7671785102
	    H    -1.2764640499  -0.6368788732  -3.1272624133
	    H    -0.7012222761  -1.9233038419  -2.1168863260
18
Geometry for iteration 1
	    C     0.0564524175  -0.0244306003  -0.1803456611
	    C     0.1043380603   1.1980017603   0.5206420912
	    C     0.0568705802   1.2007431002   1.9112685925
	    C    -0.0106924762  -0.0052330674   2.6134440660
	    C    -0.0475436846  -1.2216026848   1.9241601146
	    C    -0.0252709620  -1.2348849276   0.5346943482
	    C     0.0714626981  -0.0313735808  -1.6504799366
	    H     0.1140414174   2.1452182826  -0.0105137747
	    H     0.0655315862   2.1447330992   2.4465005042
	    H    -0.0406023019   0.0020604551   3.6986808397
	    H    -0.0943213323  -2.1576746648   2.4712357526
	    H    -0.0355358302  -2.1885009383   0.0144542923
	    N    -0.6393592159  -0.9294632658  -2.3644768989
	    N     0.6762211112   0.9433829904  -2.3144908869
	    H     0.6322155306   1.0083534164  -3.3264520952
	    H     1.2053012532   1.6577452065  -1.8269518838
	    H    -1.2464070094  -0.6446561427  -3.1225999049
	    H    -0.7443198422  -1.8855694382  -2.0317935592
18
Geometry for iteration 2
	    C     0.0619568664  -0.0267577125  -0.1840972916
	    C     0.1082725917   1.1942612356   0.5164304603
	    C     0.0559469854   1.1964228779   1.9065883459
	    C    -0.0133258019  -0.0093195056   2.6092106264
	    C    -0.0470284329  -1.2253004318   1.9195965033
	    C    -0.0200950202  -1.2370997932   0.5301383843
	    C     0.0799998615  -0.0306753769  -1.6529151282
	    H     0.1201397723   2.1430603821  -0.0120796776
	    H     0.0627189518   2.1408497841   2.4409220139
	    H    -0.0462938906  -0.0019557827   3.6942019543
	    H    -0.0942965522  -2.1617988101   2.4654372781
	    H    -0.0274188858  -2.1919908536   0.0116781456
	    N    -0.6156305849  -0.9353441588  -2.3690478511
	    N     0.6731281105   0.9503782364  -2.3155937477
	    H     0.6434704984   1.0025039311  -3.3280351709
	    H     1.1794458336   1.6768109987  -1.8298482414
	    H    -1.2244814752  -0.6563831703  -3.1275165786
	    H    -0.7981268279  -1.8508128504  -1.9680940249
18
Geometry for iteration 3
	    C     0.0650460934  -0.0271661133  -0.1877072649
	    C     0.1056901905   1.1926278211   0.5150309028
	    C     0.0505659540   1.1930671358   1.9052990977
	    C    -0.0155025759  -0.0135360936   2.6066193009
	    C    -0.0427835901  -1.2285557988   1.9151646292
	    C    -0.0126777872  -1.2383971945   0.5254185884
	    C     0.0848339940  -0.0294063190  -1.6573409055
	    H     0.1146456677   2.1434283499  -0.0098687107
	    H     0.0526984581   2.1370750113   2.4404602637
	    H    -0.0502486760  -0.0074450669   3.6915369128
	    H    -0.0861271042  -2.1662817071   2.4591965266
	    H    -0.0118114901  -2.1941464099   0.0076949763
	    N    -0.5962350677  -0.9434692347  -2.3732942752
	    N     0.6751934756   0.9536069386  -2.3214636839
	    H     0.6607226442   0.9939090242  -3.3344482696
	    H     1.1744362867   1.6861280168  -1.8370895176
	    H    -1.2076085653  -0.6667090269  -3.1313385741
	    H    -0.8624559077  -1.8078803329  -1.9068939970
18
Geometry for iteration 4
	    C     0.0657526605  -0.0283635951  -0.1911141853
	    C     0.0980166846   1.1912323519   0.5119161255
	    C     0.0421322716   1.1908448722   1.9022807578
	    C    -0.0168558588  -0.0165709068   2.6030986676
	    C    -0.0349846211  -1.2314268780   1.9110636775
	    C    -0.0030196202  -1.2407752340   0.5211202617
	    C     0.0866013621  -0.0295303275  -1.6606307246
	    H     0.1008964540   2.1424499596  -0.0124741325
	    H     0.0380111077   2.1346999019   2.4377116518
	    H    -0.0520172634  -0.0111849668   3.6880242487
	    H    -0.0704245417  -2.1699802806   2.4543487169
	    H     0.0112913170  -2.1969518541   0.0037025112
	    N    -0.5811686568  -0.9538136150  -2.3766340668
	    N     0.6795976803   0.9536319737  -2.3231215895
	    H     0.6802882670   0.9874009269  -3.3363705709
	    H     1.1830736948   1.6828375587  -1.8366075260
	    H    -1.1939019048  -0.6718897851  -3.1330947168
	    H    -0.9349070324  -1.7557611017  -1.8562431063
18
Geometry for iteration 5
	    C     0.0654183989  -0.0293067838  -0.1937744026
	    C     0.0859242608   1.1907486424   0.5086219740
	    C     0.0302746343   1.1894511661   1.8989834423
	    C    -0.0183717240  -0.0189716949   2.5993396493
	    C    -0.0240079397  -1.2339881928   1.9072916266
	    C     0.0097561312  -1.2433603941   0.5171976976
	    C     0.0877661903  -0.0308876652  -1.6622703112
	    H     0.0798710600   2.1412924054  -0.0171972537
	    H     0.0178346976   2.1330154438   2.4348015974
	    H    -0.0536798402  -0.0141978846   3.6842803889
	    H    -0.0482964050  -2.1730182157   2.4504647196
	    H     0.0427491694  -2.1984951336  -0.0016083771
	    N    -0.5709104245  -0.9655394111  -2.3772776201
	    N     0.6854624872   0.9500168386  -2.3231020460
	    H     0.6978043918   0.9801505374  -3.3364438076
	    H     1.2069799767   1.6654101236  -1.8342824517
	    H    -1.1829967709  -0.6705183364  -3.1312162789
	    H    -1.0131962936  -1.6949524451  -1.8168325468
18
Geometry for iteration 6
	    C     0.0659972166  -0.0298535233  -0.1947768228
	    C     0.0729540256   1.1911610653   0.5065168594
	    C     0.0177180985   1.1891620733   1.8968440358
	    C    -0.0198203771  -0.0200946607   2.5968956685
	    C    -0.0122561392  -1.2355042657   1.9053847847
	    C     0.0236364333  -1.2454180160   0.5152272281
	    C     0.0898582933  -0.0331974613  -1.6620716333
	    H     0.0561602994   2.1402487400  -0.0218117259
	    H    -0.0041290095   2.1322953256   2.4331508055
	    H    -0.0562836558  -0.0155213828   3.6818204332
	    H    -0.0261829116  -2.1744123199   2.4491727070
	    H     0.0736474599  -2.1981748549  -0.0062624382
	    N    -0.5710710163  -0.9728561217  -2.3749954610
	    N     0.6898790438   0.9457779577  -2.3224535071
	    H     0.7047196980   0.9760163054  -3.3358518939
	    H     1.2471519527   1.6353008370  -1.8333968738
	    H    -1.1802836275  -0.6620944710  -3.1269875614
	    H    -1.0733137841  -1.6459862272  -1.7994286047
18
Geometry for iteration 7
	    C     0.0665750537  -0.0289392665  -0.1941031378
	    C     0.0774560471   1.1922594466   0.5070468230
	    C     0.0214717096   1.1898968831   1.8973366229
	    C    -0.0200628841  -0.0195178007   2.5968966396
	    C    -0.0162274666  -1.2349521605   1.9053582064
	    C     0.0202070733  -1.2448613495   0.5153097097
	    C     0.0901552886  -0.0320270427  -1.6610420452
	    H     0.0645039661   2.1406190480  -0.0224938933
	    H     0.0025614547   2.1327424264   2.4342047124
	    H    -0.0570094355  -0.0150478239   3.6818239442
	    H    -0.0341522551  -2.1736510015   2.4493498405
	    H     0.0648857272  -2.1965942809  -0.0079997505
	    N    -0.5702273135  -0.9736983854  -2.3735918150
	    N     0.6828963629   0.9512663653  -2.3212381365
	    H     0.6964731354   0.9828422203  -3.3347677049
	    H     1.2441128403   1.6369008191  -1.8325013646
	    H    -1.1813756607  -0.6677696312  -3.1262266758
	    H    -1.0538616434  -1.6626194661  -1.8063859752
18
Geometry for iteration 8
	    C     0.0657335129  -0.0292076203  -0.1940862234
	    C     0.0750819831   1.1920947866   0.5069768333
	    C     0.0193824573   1.1897592640   1.8972313150
	    C    -0.0200192972  -0.0196298534   2.5969026442
	    C    -0.0141798940  -1.2352025123   1.9056726496
	    C     0.0218417434  -1.2452160112   0.5157028441
	    C     0.0892458499  -0.0318657287  -1.6610521131
	    H     0.0602589888   2.1401681121  -0.0229036647
	    H    -0.0010839149   2.1325561589   2.4341184273
	    H    -0.0567247008  -0.0150583823   3.6818349219
	    H    -0.0300047061  -2.1737334140   2.4500087533
	    H     0.0690514349  -2.1968997504  -0.0073854401
	    N    -0.5719894684  -0.9721657951  -2.3741733825
	    N     0.6837905635   0.9501084413  -2.3215528369
	    H     0.6990497018   0.9801685026  -3.3350632337
	    H     1.2501854395   1.6317197653  -1.8333315020
	    H    -1.1822640682  -0.6636336287  -3.1263787993
	    H    -1.0589736254  -1.6571133344  -1.8055451932
18
Geometry for iteration 9
	    C     0.0702216530  -0.0312329953  -0.1946283281
	    C     0.1193433998   1.1893504349   0.5075011925
	    C     0.0612515233   1.1900729863   1.8976981038
	    C    -0.0202059642  -0.0171732911   2.5984159141
	    C    -0.0546321352  -1.2327201565   1.9074060135
	    C    -0.0175004987  -1.2442087022   0.5173059048
	    C     0.0943922142  -0.0374235474  -1.6635631613
	    H     0.1355627923   2.1396822172  -0.0191949490
	    H     0.0712036345   2.1342331385   2.4333625638
	    H    -0.0580290870  -0.0108490637   3.6832766142
	    H    -0.1021073799  -2.1708911573   2.4514898201
	    H     0.0014016599  -2.1994470435  -0.0018520330
	    N    -0.5256205683  -0.9992425765  -2.3819204915
	    N     0.6483807871   0.9731240395  -2.3178682365
	    H     0.6464539317   1.0233882731  -3.3310804512
	    H     1.1318094244   1.7172981244  -1.8211147990
	    H    -1.1448899656  -0.7174578814  -3.1368971234
	    H    -0.9586534214  -1.7296537988  -1.8213605538
18
Geometry for iteration 9
	    C     0.0678253949  -0.0303124010  -0.1943811205
	    C     0.0971178947   1.1909952653   0.5071431749
	    C     0.0403168147   1.1902292477   1.8973755813
	    C    -0.0200511872  -0.0184137149   2.5976457901
	    C    -0.0343909515  -1.2343476099   1.9065969980
	    C     0.0020689026  -1.2451580571   0.5165589444
	    C     0.0915803123  -0.0348088574  -1.6623349298
	    H     0.0977211896   2.1404233105  -0.0212008213
	    H     0.0350765542   2.1339839363   2.4335992767
	    H    -0.0572323361  -0.0129227276   3.6825459107
	    H    -0.0659745978  -2.1729335040   2.4508639141
	    H     0.0351397449  -2.1988606503  -0.0045195883
	    N    -0.5492116434  -0.9863576053  -2.3780398882
	    N     0.6662150795   0.9618288802  -2.3197925956
	    H     0.6736799651   1.0028381714  -3.3332903856
	    H     1.1929164776   1.6769386531  -1.8269236508
	    H    -1.1642730042  -0.6912794328  -3.1316960428
	    H    -1.0101426100  -1.6949939042  -1.8131745673
18
Geometry for iteration 0
	    C     0.0657335129  -0.0292076203  -0.1940862234
	    C     0.0750819831   1.1920947866   0.5069768333
	    C     0.0193824573   1.1897592640   1.8972313150
	    C    -0.0200192972  -0.0196298534   2.5969026442
	    C    -0.0141798940  -1.2352025123   1.9056726496
	    C     0.0218417434  -1.2452160112   0.5157028441
	    C     0.0892458499  -0.0318657287  -1.6610521131
	    H     0.0602589888   2.1401681121  -0.0229036647
	    H    -0.0010839149   2.1325561589   2.4341184273
	    H    -0.0567247008  -0.0150583823   3.6818349219
	    H    -0.0300047061  -2.1737334140   2.4500087533
	    H     0.0690514349  -2.1968997504  -0.0073854401
	    N    -0.5719894684  -0.9721657951  -2.3741733825
	    N     0.6837905635   0.9501084413  -2.3215528369
	    H     0.6990497018   0.9801685026  -3.3350632337
	    H     1.2501854395   1.6317197653  -1.8333315020
	    H    -1.1822640682  -0.6636336287  -3.1263787993
	    H    -1.0589736254  -1.6571133344  -1.8055451932
18
Geometry for iteration 1
	    C     0.0657335129  -0.0292076203  -0.1940862234
	    C     0.0750819831   1.1920947866   0.5069768333
	    C     0.0193824573   1.1897592640   1.8972313150
	    C    -0.0200192972  -0.0196298534   2.5969026442
	    C    -0.0141798940  -1.2352025123   1.9056726496
	    C     0.0218417434  -1.2452160112   0.5157028441
	    C     0.0892458499  -0.0318657287  -1.6610521131
	    H     0.0602589888   2.1401681121  -0.0229036647
	    H    -0.0010839149   2.1325561589   2.4341184273
	    H    -0.0567247008  -0.0150583823   3.6818349219
	    H    -0.0300047061  -2.1737334140   2.4500087533
	    H     0.0690514349  -2.1968997504  -0.0073854401
	    N    -0.5719894684  -0.9721657951  -2.3741733825
	    N     0.6837905635   0.9501084413  -2.3215528369
	    H     0.6990497018   0.9801685026  -3.3350632337
	    H     1.2501854395   1.6317197653  -1.8333315020
	    H    -1.1822640682  -0.6636336287  -3.1263787993
	    H    -1.0589736254  -1.6571133344  -1.8055451932
