18
Geometry for iteration 0
	    C     0.0000000000   0.0000000000  -0.1778640000
	    C     0.0366780000   1.2193740000   0.5241650000
	    C     0.0317650000   1.2131200000   1.9154440000
	    C     0.0000000000   0.0000000000   2.6101070000
	    C    -0.0317650000  -1.2131200000   1.9154440000
	    C    -0.0366780000  -1.2193750000   0.5241650000
	    C     0.0000000000   0.0000000000  -1.6447340000
	    H     0.0181700000   2.1647050000  -0.0108540000
	    H     0.0424020000   2.1528950000   2.4578860000
	    H     0.0000000000   0.0000000000   3.6957560000
	    H    -0.0424020000  -2.1528950000   2.4578860000
	    H    -0.0181700000  -2.1647050000  -0.0108530000
	    N    -0.8602830000   0.7671010000  -2.3084600000
	    N     0.8602830000  -0.7671000000  -2.3084610000
	    H     0.9630250000  -0.7342160000  -3.3159970000
	    H     1.3982150000  -1.4662040000  -1.8133170000
	    H    -1.3982150000   1.4662040000  -1.8133160000
	    H    -0.9630260000   0.7342160000  -3.3159970000
18
Geometry for iteration 1
	    C    -0.0098740291   0.0047633262  -0.1767415926
	    C     0.0130840682   1.2221627698   0.5243580598
	    C     0.0306875842   1.2118278649   1.9167404327
	    C     0.0013265749  -0.0019342003   2.6090876393
	    C    -0.0283833106  -1.2125072051   1.9111876652
	    C    -0.0167501587  -1.2163210139   0.5187975903
	    C     0.0026164683   0.0077318695  -1.6492631980
	    H     0.0569239852   2.1695091425  -0.0104435772
	    H     0.0748030803   2.1502533089   2.4608944563
	    H     0.0043383373  -0.0044978519   3.6946547624
	    H    -0.0654256106  -2.1535404823   2.4509631359
	    H    -0.0555420675  -2.1609947103  -0.0205525613
	    N    -0.8573862730   0.7710875673  -2.3144535155
	    N     0.8566093976  -0.7723543606  -2.3029072176
	    H     0.8958864073  -0.8176994302  -3.3198666182
	    H     1.4813460796  -1.3854296213  -1.7794464131
	    H    -1.4919860161   1.3833293616  -1.8005335645
	    H    -0.8922755173   0.8046136649  -3.3314754837
18
Geometry for iteration 2
	    C    -0.0264135556   0.0033615712  -0.1791872849
	    C     0.0116096207   1.2216539457   0.5185930364
	    C     0.0269860048   1.2116813433   1.9112406426
	    C     0.0064989867  -0.0027970405   2.6031972845
	    C    -0.0214007847  -1.2144581998   1.9061528148
	    C    -0.0269817174  -1.2187795339   0.5134511865
	    C    -0.0012841313   0.0080245407  -1.6514057921
	    H     0.0651892360   2.1646863046  -0.0196371286
	    H     0.0684457053   2.1501334814   2.4547904081
	    H     0.0154236112  -0.0052411146   3.6887407168
	    H    -0.0469162573  -2.1555182665   2.4462447964
	    H    -0.0795831137  -2.1601543834  -0.0276952836
	    N    -0.8455110831   0.7896009552  -2.3137390270
	    N     0.8430675200  -0.7915674630  -2.2917125101
	    H     0.8442626711  -0.9069309124  -3.3028922315
	    H     1.5321960684  -1.3171707523  -1.7553901907
	    H    -1.5391708008   1.3234022139  -1.7933349229
	    H    -0.8264189803   0.9000733102  -3.3264165146
18
Geometry for iteration 3
	    C    -0.0276353172   0.0041436797  -0.1781887876
	    C     0.0061097207   1.2228439543   0.5214113024
	    C     0.0251081595   1.2119975601   1.9137985210
	    C     0.0029877882  -0.0031399008   2.6045990138
	    C    -0.0260259863  -1.2148422963   1.9073570589
	    C    -0.0256478002  -1.2187998737   0.5150394180
	    C     0.0040238785   0.0106166481  -1.6494789632
	    H     0.0525716080   2.1652224511  -0.0171757102
	    H     0.0644555466   2.1496823307   2.4586279261
	    H     0.0114240542  -0.0061755107   3.6901910614
	    H    -0.0498184049  -2.1556195501   2.4477740800
	    H    -0.0707645178  -2.1588713474  -0.0276105366
	    N    -0.8369085846   0.7912127206  -2.3176348664
	    N     0.8423574754  -0.7949001263  -2.2904737395
	    H     0.8388153556  -0.9135043984  -3.2971579841
	    H     1.5416076502  -1.3035946674  -1.7649435595
	    H    -1.5454995390   1.3059050583  -1.8109083470
	    H    -0.8071620868   0.9078232681  -3.3242258875
18
Geometry for iteration 4
	    C    -0.0314852108   0.0023956083  -0.1779976621
	    C     0.0066814161   1.2216410519   0.5208641968
	    C     0.0249720340   1.2118654820   1.9130264743
	    C     0.0039001567  -0.0029913331   2.6044797131
	    C    -0.0252042447  -1.2153760600   1.9081731620
	    C    -0.0284922209  -1.2202651939   0.5161335037
	    C     0.0009425375   0.0083121799  -1.6478624145
	    H     0.0516100992   2.1633880797  -0.0190800445
	    H     0.0660163720   2.1497474022   2.4573987183
	    H     0.0137423305  -0.0053615819   3.6900838341
	    H    -0.0491033666  -2.1556083868   2.4495228828
	    H    -0.0728903914  -2.1604416841  -0.0264850282
	    N    -0.8365196647   0.7919565883  -2.3175735439
	    N     0.8405614226  -0.7962977378  -2.2890634556
	    H     0.8401846799  -0.9091881148  -3.2963988237
	    H     1.5452691948  -1.3000496845  -1.7662887955
	    H    -1.5472032270   1.3069893912  -1.8141462343
	    H    -0.8029829171   0.9092839934  -3.3237864828
18
Geometry for iteration 5
	    C    -0.0310863882   0.0031474944  -0.1781249237
	    C     0.0047401894   1.2220646654   0.5216426885
	    C     0.0196784211   1.2114754084   1.9137591454
	    C    -0.0030764201  -0.0038392254   2.6044049421
	    C    -0.0305313261  -1.2158928134   1.9073560023
	    C    -0.0302026770  -1.2199570127   0.5154239274
	    C     0.0067123546   0.0101220766  -1.6472366907
	    H     0.0502257220   2.1640066246  -0.0179297962
	    H     0.0590654211   2.1489715643   2.4589098547
	    H     0.0038908599  -0.0068662805   3.6900354468
	    H    -0.0555299497  -2.1563500283   2.4482667180
	    H    -0.0723367476  -2.1596153167  -0.0282885021
	    N    -0.8280996466   0.7943563289  -2.3197433166
	    N     0.8445440401  -0.7983914022  -2.2861795014
	    H     0.8471711796  -0.9098375808  -3.2938266723
	    H     1.5482577947  -1.3027261852  -1.7621947477
	    H    -1.5412295560   1.3091028616  -1.8190445339
	    H    -0.7921942713   0.9102288209  -3.3262300405
18
Geometry for iteration 6
	    C    -0.0310217236   0.0027981653  -0.1781223542
	    C     0.0049098941   1.2217925460   0.5215916518
	    C     0.0204648222   1.2114169223   1.9137141251
	    C    -0.0030445538  -0.0037500364   2.6045549461
	    C    -0.0313756721  -1.2158750251   1.9076721789
	    C    -0.0304009663  -1.2201795424   0.5157416932
	    C     0.0063497465   0.0096484476  -1.6473436583
	    H     0.0510270423   2.1636429635  -0.0180646055
	    H     0.0603026016   2.1489644669   2.4587414975
	    H     0.0039589102  -0.0066223676   3.6901826482
	    H    -0.0569596797  -2.1562138066   2.4487619407
	    H    -0.0735518004  -2.1598903406  -0.0277731960
	    N    -0.8286592346   0.7937024300  -2.3197864433
	    N     0.8448585962  -0.7979493714  -2.2865877434
	    H     0.8484032305  -0.9082470360  -3.2943561364
	    H     1.5496434177  -1.3009135243  -1.7627160678
	    H    -1.5420113358   1.3079610857  -1.8189245972
	    H    -0.7928942949   0.9097140232  -3.3262858794
18
Geometry for iteration 7
	    C    -0.0310217236   0.0027981653  -0.1781223542
	    C     0.0049098941   1.2217925460   0.5215916518
	    C     0.0204648222   1.2114169223   1.9137141251
	    C    -0.0030445538  -0.0037500364   2.6045549461
	    C    -0.0313756721  -1.2158750251   1.9076721789
	    C    -0.0304009663  -1.2201795424   0.5157416932
	    C     0.0063497465   0.0096484476  -1.6473436583
	    H     0.0510270423   2.1636429635  -0.0180646055
	    H     0.0603026016   2.1489644669   2.4587414975
	    H     0.0039589102  -0.0066223676   3.6901826482
	    H    -0.0569596797  -2.1562138066   2.4487619407
	    H    -0.0735518004  -2.1598903406  -0.0277731960
	    N    -0.8286592346   0.7937024300  -2.3197864433
	    N     0.8448585962  -0.7979493714  -2.2865877434
	    H     0.8484032305  -0.9082470360  -3.2943561364
	    H     1.5496434177  -1.3009135243  -1.7627160678
	    H    -1.5420113358   1.3079610857  -1.8189245972
	    H    -0.7928942949   0.9097140232  -3.3262858794
