18
Geometry for iteration 0
	    C     0.0000000000   0.0000000000  -0.1778640000
	    C     0.0366780000   1.2193740000   0.5241650000
	    C     0.0317650000   1.2131200000   1.9154440000
	    C     0.0000000000   0.0000000000   2.6101070000
	    C    -0.0317650000  -1.2131200000   1.9154440000
	    C    -0.0366780000  -1.2193750000   0.5241650000
	    C     0.0000000000   0.0000000000  -1.6447340000
	    H     0.0181700000   2.1647050000  -0.0108540000
	    H     0.0424020000   2.1528950000   2.4578860000
	    H     0.0000000000   0.0000000000   3.6957560000
	    H    -0.0424020000  -2.1528950000   2.4578860000
	    H    -0.0181700000  -2.1647050000  -0.0108530000
	    N    -0.7125900000  -0.9059500000  -2.3084610000
	    N     0.7125900000   0.9059500000  -2.3084600000
	    H     0.6734320000   1.0064700000  -3.3159970000
	    H     1.3771900000   1.4859700000  -1.8133160000
	    H    -0.4926010000  -1.1114700000  -3.2741990000
	    H    -1.4391480000  -1.4617010000  -1.8725460000
18
Geometry for iteration 1
	    C    -0.0146130964   0.0155435385  -0.1786133896
	    C     0.0363582447   1.2306535419   0.5317086374
	    C     0.0435697939   1.2156466598   1.9226624216
	    C     0.0049864060  -0.0025257376   2.6088817828
	    C    -0.0460627262  -1.2108972869   1.9063752242
	    C    -0.0628898767  -1.2080391544   0.5151691376
	    C    -0.0170131644   0.0173047706  -1.6440662100
	    H     0.0224347595   2.1795615578   0.0027464671
	    H     0.0673757209   2.1514414615   2.4718046052
	    H     0.0126106846  -0.0099757852   3.6945637070
	    H    -0.0646833876  -2.1540734684   2.4427868299
	    H    -0.0652380610  -2.1486177933  -0.0284756537
	    N    -0.6927554010  -0.9147580796  -2.3152233968
	    N     0.7021413388   0.9146324414  -2.3114312269
	    H     0.6606064878   1.0109932135  -3.3195863479
	    H     1.3771233039   1.4863701324  -1.8200129262
	    H    -0.4939530358  -1.1366986632  -3.2849420626
	    H    -1.3511249910  -1.5172933489  -1.8307785992
18
Geometry for iteration 2
	    C    -0.0124276584   0.0045889021  -0.1795964688
	    C     0.0355617732   1.2225944330   0.5254144886
	    C     0.0393006020   1.2144970781   1.9162114230
	    C     0.0014941876  -0.0002185894   2.6085670929
	    C    -0.0432751556  -1.2121173106   1.9122775968
	    C    -0.0555337329  -1.2161125822   0.5212201129
	    C    -0.0045058600   0.0052362359  -1.6447257629
	    H     0.0215337947   2.1685219285  -0.0088714597
	    H     0.0601165085   2.1529224434   2.4607332359
	    H     0.0077476413  -0.0023805260   3.6942491866
	    H    -0.0574011325  -2.1525370246   2.4536020495
	    H    -0.0450831956  -2.1606771390  -0.0149247178
	    N    -0.7058123172  -0.9004307735  -2.3262550759
	    N     0.7120862130   0.9111062484  -2.3048517709
	    H     0.6591953984   1.0237863510  -3.3108353415
	    H     1.3799358278   1.4875445771  -1.8094294158
	    H    -0.5128942267  -1.1327828391  -3.2942731714
	    H    -1.3611656676  -1.4942734131  -1.8349430014
18
Geometry for iteration 3
	    C    -0.0093552812   0.0062675213  -0.1802387406
	    C     0.0355972642   1.2237342376   0.5258159936
	    C     0.0370600286   1.2140837314   1.9166000115
	    C     0.0010172502  -0.0012858639   2.6078290677
	    C    -0.0416114453  -1.2124990042   1.9103425800
	    C    -0.0519361690  -1.2149650694   0.5193087352
	    C    -0.0054657179   0.0081116421  -1.6449887654
	    H     0.0182576005   2.1701497151  -0.0073659660
	    H     0.0546141590   2.1520066160   2.4620144243
	    H     0.0050865298  -0.0043993120   3.6934974288
	    H    -0.0567960774  -2.1534127145   2.4506871767
	    H    -0.0419551013  -2.1591345631  -0.0176951671
	    N    -0.7103256049  -0.8977262469  -2.3209747742
	    N     0.7159942512   0.9087944984  -2.3073675148
	    H     0.6641098302   1.0174520184  -3.3135815026
	    H     1.3841665006   1.4859407992  -1.8135860730
	    H    -0.5189237582  -1.1287970009  -3.2888460266
	    H    -1.3606612591  -1.4950530046  -1.8278818876
18
Geometry for iteration 4
	    C    -0.0098395773   0.0060859996  -0.1803969002
	    C     0.0352167846   1.2235995358   0.5255647802
	    C     0.0366047013   1.2140918393   1.9164143983
	    C     0.0005350911  -0.0011496502   2.6077542198
	    C    -0.0413932397  -1.2124162207   1.9102578301
	    C    -0.0521698525  -1.2149841830   0.5191747043
	    C    -0.0059051260   0.0081936955  -1.6453989820
	    H     0.0194260999   2.1699087553  -0.0078660485
	    H     0.0547954389   2.1520637427   2.4617425327
	    H     0.0050659591  -0.0041451439   3.6934167182
	    H    -0.0557488203  -2.1533469710   2.4505832434
	    H    -0.0414987775  -2.1592985133  -0.0177124735
	    N    -0.7122343234  -0.8963841547  -2.3210630763
	    N     0.7172873260   0.9075736958  -2.3072298608
	    H     0.6663907751   1.0163570249  -3.3134736019
	    H     1.3821668591   1.4871037218  -1.8118875512
	    H    -0.5204467635  -1.1270328617  -3.2889891729
	    H    -1.3593795549  -1.4969523123  -1.8273217597
18
Geometry for iteration 5
	    C    -0.0089988932   0.0062062935  -0.1803125971
	    C     0.0354021672   1.2237077766   0.5257111273
	    C     0.0362663015   1.2140780521   1.9165756268
	    C     0.0005602192  -0.0012177786   2.6078134108
	    C    -0.0409059174  -1.2124193373   1.9101904081
	    C    -0.0512559027  -1.2148584862   0.5190884851
	    C    -0.0054139014   0.0081045638  -1.6454652890
	    H     0.0189128477   2.1701011434  -0.0075403677
	    H     0.0535390034   2.1520365175   2.4619590241
	    H     0.0043688111  -0.0042804665   3.6934744418
	    H    -0.0554953786  -2.1534145336   2.4503919701
	    H    -0.0408473115  -2.1591425525  -0.0179149297
	    N    -0.7127282882  -0.8960350041  -2.3207851629
	    N     0.7181844760   0.9067972921  -2.3076432278
	    H     0.6663244196   1.0162508709  -3.3137457595
	    H     1.3828668142   1.4865862265  -1.8123975128
	    H    -0.5214454534  -1.1270910831  -3.2887832283
	    H    -1.3604610134  -1.4961414945  -1.8270474191
18
Geometry for iteration 6
	    C    -0.0089988932   0.0062062935  -0.1803125971
	    C     0.0354021672   1.2237077766   0.5257111273
	    C     0.0362663015   1.2140780521   1.9165756268
	    C     0.0005602192  -0.0012177786   2.6078134108
	    C    -0.0409059174  -1.2124193373   1.9101904081
	    C    -0.0512559027  -1.2148584862   0.5190884851
	    C    -0.0054139014   0.0081045638  -1.6454652890
	    H     0.0189128477   2.1701011434  -0.0075403677
	    H     0.0535390034   2.1520365175   2.4619590241
	    H     0.0043688111  -0.0042804665   3.6934744418
	    H    -0.0554953786  -2.1534145336   2.4503919701
	    H    -0.0408473115  -2.1591425525  -0.0179149297
	    N    -0.7127282882  -0.8960350041  -2.3207851629
	    N     0.7181844760   0.9067972921  -2.3076432278
	    H     0.6663244196   1.0162508709  -3.3137457595
	    H     1.3828668142   1.4865862265  -1.8123975128
	    H    -0.5214454534  -1.1270910831  -3.2887832283
	    H    -1.3604610134  -1.4961414945  -1.8270474191
