18
Geometry for iteration 0
	    C     0.0000000000   0.0000000000  -0.1778640000
	    C     0.0366780000   1.2193740000   0.5241650000
	    C     0.0317650000   1.2131200000   1.9154440000
	    C     0.0000000000   0.0000000000   2.6101070000
	    C    -0.0317650000  -1.2131200000   1.9154440000
	    C    -0.0366780000  -1.2193750000   0.5241650000
	    C     0.0000000000   0.0000000000  -1.6447340000
	    H     0.0181700000   2.1647050000  -0.0108540000
	    H     0.0424020000   2.1528950000   2.4578860000
	    H     0.0000000000   0.0000000000   3.6957560000
	    H    -0.0424020000  -2.1528950000   2.4578860000
	    H    -0.0181700000  -2.1647050000  -0.0108530000
	    N    -0.7125900000  -0.9059500000  -2.3084610000
	    N     0.7125900000   0.9059500000  -2.3084600000
	    H     0.6734320000   1.0064700000  -3.3159970000
	    H     1.3771900000   1.4859700000  -1.8133160000
	    H    -1.7229640000  -0.8574060000  -2.3000400000
	    H    -0.2899800000  -1.6210960000  -2.8887480000
18
Geometry for iteration 1
	    C    -0.0273247223   0.0317569234  -0.1641856186
	    C     0.0588939698   1.2474126092   0.5537933950
	    C     0.0809760256   1.2288450737   1.9430710993
	    C     0.0260271327   0.0053630415   2.6225858606
	    C    -0.0623529323  -1.2013966752   1.9157956990
	    C    -0.1030408012  -1.1948376723   0.5258973787
	    C    -0.0420218249   0.0160712698  -1.6223891134
	    H     0.0580878870   2.1989273518   0.0285288032
	    H     0.1283778712   2.1614431679   2.4975229093
	    H     0.0441573135  -0.0068284549   3.7083946326
	    H    -0.1004634040  -2.1458572649   2.4495043183
	    H    -0.1535882273  -2.1295299682  -0.0274480478
	    N    -0.6621864124  -0.9881858031  -2.3196832527
	    N     0.6639484851   0.9120599627  -2.2938434501
	    H     0.6339156632   0.9483510935  -3.3100455587
	    H     1.3201919540   1.5254382462  -1.8186513814
	    H    -1.6789429847  -1.0656637711  -2.3220130925
	    H    -0.1469769931  -1.5294321300  -3.0453085807
18
Geometry for iteration 2
	    C    -0.0436979039   0.0311263375  -0.1542322164
	    C     0.0670114334   1.2471235080   0.5602762106
	    C     0.1071464296   1.2303517194   1.9471353153
	    C     0.0342649839   0.0088398304   2.6314706585
	    C    -0.0893878339  -1.1970173082   1.9312699375
	    C    -0.1442000565  -1.1924935155   0.5422245795
	    C    -0.0493857332   0.0059831617  -1.6044668747
	    H     0.0767414061   2.1971562134   0.0320468311
	    H     0.1785564224   2.1622342152   2.4992298716
	    H     0.0644907231  -0.0006732332   3.7170381520
	    H    -0.1432688073  -2.1375714797   2.4701853376
	    H    -0.2278304022  -2.1209655001  -0.0129942853
	    N    -0.6026275120  -1.0474270556  -2.2983980209
	    N     0.6372731751   0.9020843603  -2.2966816268
	    H     0.5919863068   0.9154399856  -3.3116833215
	    H     1.2875686931   1.5387206959  -1.8443169724
	    H    -1.6090560855  -1.1848549177  -2.2995739337
	    H    -0.0979072390  -1.3441200174  -3.1870036420
18
Geometry for iteration 3
	    C    -0.0409772468   0.0141140828  -0.1551258145
	    C     0.0779730648   1.2347267926   0.5492612887
	    C     0.1135251278   1.2296586899   1.9358516137
	    C     0.0262314255   0.0154534456   2.6313020097
	    C    -0.1073459716  -1.1946748546   1.9420622005
	    C    -0.1517341766  -1.2027321091   0.5528876436
	    C    -0.0391736400  -0.0167807981  -1.6031944764
	    H     0.0947163892   2.1802668791   0.0133753204
	    H     0.1921997575   2.1651395805   2.4801652710
	    H     0.0556283900   0.0160083235   3.7168671327
	    H    -0.1711086991  -2.1294544486   2.4895827492
	    H    -0.2352034268  -2.1344869145   0.0050035019
	    N    -0.5455651666  -1.1053353949  -2.2752737867
	    N     0.6353389202   0.8946821344  -2.2937957312
	    H     0.5853626114   0.9297819219  -3.3064193601
	    H     1.2714850461   1.5403290300  -1.8370774248
	    H    -1.5493142444  -1.2516223832  -2.2455075519
	    H    -0.1743601606  -1.1711369773  -3.2784385857
18
Geometry for iteration 4
	    C    -0.0394980951   0.0154965441  -0.1601400740
	    C     0.0797681104   1.2340863745   0.5458696592
	    C     0.1153566013   1.2272934701   1.9330266483
	    C     0.0244623462   0.0137940851   2.6275362316
	    C    -0.1119360643  -1.1944829719   1.9364596533
	    C    -0.1538365547  -1.2006252063   0.5472811825
	    C    -0.0414854534  -0.0092929309  -1.6120293442
	    H     0.0953684053   2.1811449872   0.0130373071
	    H     0.1961749161   2.1621741014   2.4777207608
	    H     0.0535859757   0.0129900212   3.7129902553
	    H    -0.1779041748  -2.1299577569   2.4822983567
	    H    -0.2334525839  -2.1341696025   0.0017187783
	    N    -0.5277189562  -1.1058728329  -2.2744739170
	    N     0.6376945359   0.9030841356  -2.2961678556
	    H     0.6020348819   0.9494824476  -3.3086609632
	    H     1.2634991833   1.5485526447  -1.8274085621
	    H    -1.5312052878  -1.2583891763  -2.2276038781
	    H    -0.2132297857  -1.2013713338  -3.2499282387
18
Geometry for iteration 5
	    C    -0.0302285010   0.0067227456  -0.1601805577
	    C     0.0659893478   1.2291217923   0.5428104189
	    C     0.0951321048   1.2280745796   1.9303743411
	    C     0.0172166940   0.0161859352   2.6287862683
	    C    -0.0965466683  -1.1964765503   1.9404030461
	    C    -0.1268292610  -1.2086737582   0.5508344812
	    C    -0.0286039413  -0.0184124614  -1.6136356863
	    H     0.0684458038   2.1757287756   0.0086470778
	    H     0.1610753528   2.1663720689   2.4716192211
	    H     0.0412118972   0.0195315909   3.7143901641
	    H    -0.1505961341  -2.1315322518   2.4884517372
	    H    -0.1788517508  -2.1473541085   0.0096137500
	    N    -0.5560313775  -1.0924948804  -2.2780589813
	    N     0.6655154003   0.8826805072  -2.2976330437
	    H     0.6291061083   0.9358415410  -3.3097754136
	    H     1.2970468311   1.5209963212  -1.8270311163
	    H    -1.5689964987  -1.1970037616  -2.2297909811
	    H    -0.2663774073  -1.1753710854  -3.2482987257
18
Geometry for iteration 6
	    C    -0.0337728817   0.0094684377  -0.1618867386
	    C     0.0698022219   1.2302945507   0.5409119737
	    C     0.0985409645   1.2271489093   1.9286461781
	    C     0.0177965658   0.0148476853   2.6258910663
	    C    -0.0993674856  -1.1964339301   1.9363492064
	    C    -0.1320572758  -1.2066691279   0.5467208657
	    C    -0.0356271691  -0.0119110341  -1.6144028937
	    H     0.0776863943   2.1767241013   0.0065022515
	    H     0.1682903919   2.1645193602   2.4707114577
	    H     0.0424174153   0.0167469590   3.7114442806
	    H    -0.1561631576  -2.1318644362   2.4833414788
	    H    -0.1888640160  -2.1437429662   0.0037083703
	    N    -0.5538019608  -1.0920997976  -2.2702057367
	    N     0.6609241463   0.8888476809  -2.2969470934
	    H     0.6282846066   0.9459736963  -3.3087103362
	    H     1.2896675116   1.5266946693  -1.8224349844
	    H    -1.5635623766  -1.2137352157  -2.2199895776
	    H    -0.2525158948  -1.1908725424  -3.2381237686
18
Geometry for iteration 7
	    C    -0.0318911148   0.0078176779  -0.1614832080
	    C     0.0677850982   1.2293381049   0.5408760999
	    C     0.0960092253   1.2273456924   1.9287345912
	    C     0.0172467442   0.0154105731   2.6265804372
	    C    -0.0971126850  -1.1964504218   1.9376438577
	    C    -0.1292643613  -1.2078188777   0.5479454226
	    C    -0.0329872882  -0.0142915529  -1.6149976404
	    H     0.0737851699   2.1753791509   0.0058799765
	    H     0.1631960105   2.1652020621   2.4702887851
	    H     0.0409207273   0.0180080385   3.7121401331
	    H    -0.1518598721  -2.1316821933   2.4851854706
	    H    -0.1837465671  -2.1453313561   0.0056181201
	    N    -0.5567400979  -1.0903306641  -2.2715839702
	    N     0.6643313877   0.8855940780  -2.2975740331
	    H     0.6286077409   0.9465501761  -3.3090830661
	    H     1.2950110570   1.5210854138  -1.8225481784
	    H    -1.5669526962  -1.2041157296  -2.2214659460
	    H    -0.2586604781  -1.1877731723  -3.2406308518
18
Geometry for iteration 8
	    C    -0.0324449230   0.0083225529  -0.1611787838
	    C     0.0688157168   1.2296929682   0.5410166863
	    C     0.0973331631   1.2276148997   1.9288742924
	    C     0.0174694848   0.0157503516   2.6267010307
	    C    -0.0980164818  -1.1959757304   1.9378281422
	    C    -0.1300464515  -1.2073335505   0.5481161854
	    C    -0.0336613231  -0.0133967012  -1.6148084752
	    H     0.0758148666   2.1756416309   0.0058914887
	    H     0.1655691211   2.1653819514   2.4704098674
	    H     0.0414928111   0.0182601750   3.7122499909
	    H    -0.1532752229  -2.1311622260   2.4853910649
	    H    -0.1852170506  -2.1447195212   0.0057176157
	    N    -0.5560254100  -1.0900261691  -2.2709415589
	    N     0.6640885465   0.8869498180  -2.2964793960
	    H     0.6294848351   0.9487855902  -3.3079247658
	    H     1.2938093604   1.5224660944  -1.8202904890
	    H    -1.5650926050  -1.2152037593  -2.2273341672
	    H    -0.2624204377  -1.1871113746  -3.2417127288
18
Geometry for iteration 0
	    C    -0.0318911148   0.0078176779  -0.1614832080
	    C     0.0677850982   1.2293381049   0.5408760999
	    C     0.0960092253   1.2273456924   1.9287345912
	    C     0.0172467442   0.0154105731   2.6265804372
	    C    -0.0971126850  -1.1964504218   1.9376438577
	    C    -0.1292643613  -1.2078188777   0.5479454226
	    C    -0.0329872882  -0.0142915529  -1.6149976404
	    H     0.0737851699   2.1753791509   0.0058799765
	    H     0.1631960105   2.1652020621   2.4702887851
	    H     0.0409207273   0.0180080385   3.7121401331
	    H    -0.1518598721  -2.1316821933   2.4851854706
	    H    -0.1837465671  -2.1453313561   0.0056181201
	    N    -0.5567400979  -1.0903306641  -2.2715839702
	    N     0.6643313877   0.8855940780  -2.2975740331
	    H     0.6286077409   0.9465501761  -3.3090830661
	    H     1.2950110570   1.5210854138  -1.8225481784
	    H    -1.5669526962  -1.2041157296  -2.2214659460
	    H    -0.2586604781  -1.1877731723  -3.2406308518
18
Geometry for iteration 1
	    C    -0.0323386572   0.0081046312  -0.1614770965
	    C     0.0675718129   1.2293042774   0.5414112516
	    C     0.0951154673   1.2266313136   1.9292676644
	    C     0.0156917956   0.0143254179   2.6264469757
	    C    -0.0985109202  -1.1972388165   1.9369228821
	    C    -0.1296111741  -1.2079741254   0.5472042027
	    C    -0.0327624006  -0.0134141721  -1.6150339537
	    H     0.0741563039   2.1755490287   0.0067770394
	    H     0.1622402145   2.1642176674   2.4713052693
	    H     0.0389555545   0.0163557656   3.7120218411
	    H    -0.1536303408  -2.1327252695   2.4840082538
	    H    -0.1840968861  -2.1452234067   0.0043495670
	    N    -0.5561763946  -1.0890208862  -2.2724832334
	    N     0.6662067593   0.8861608193  -2.2963368376
	    H     0.6315948042   0.9473845456  -3.3078756305
	    H     1.2968046724   1.5210442471  -1.8203101693
	    H    -1.5664174795  -1.2033998111  -2.2233794168
	    H    -0.2571151316  -1.1861442263  -3.2412926092
18
Geometry for iteration 2
	    C    -0.0323386572   0.0081046312  -0.1614770965
	    C     0.0675718129   1.2293042774   0.5414112516
	    C     0.0951154673   1.2266313136   1.9292676644
	    C     0.0156917956   0.0143254179   2.6264469757
	    C    -0.0985109202  -1.1972388165   1.9369228821
	    C    -0.1296111741  -1.2079741254   0.5472042027
	    C    -0.0327624006  -0.0134141721  -1.6150339537
	    H     0.0741563039   2.1755490287   0.0067770394
	    H     0.1622402145   2.1642176674   2.4713052693
	    H     0.0389555545   0.0163557656   3.7120218411
	    H    -0.1536303408  -2.1327252695   2.4840082538
	    H    -0.1840968861  -2.1452234067   0.0043495670
	    N    -0.5561763946  -1.0890208862  -2.2724832334
	    N     0.6662067593   0.8861608193  -2.2963368376
	    H     0.6315948042   0.9473845456  -3.3078756305
	    H     1.2968046724   1.5210442471  -1.8203101693
	    H    -1.5664174795  -1.2033998111  -2.2233794168
	    H    -0.2571151316  -1.1861442263  -3.2412926092
