18
Geometry for iteration 0
	    C     0.0000000000   0.0000000000  -0.1778640000
	    C     0.0366780000   1.2193740000   0.5241650000
	    C     0.0317650000   1.2131200000   1.9154440000
	    C     0.0000000000   0.0000000000   2.6101070000
	    C    -0.0317650000  -1.2131200000   1.9154440000
	    C    -0.0366780000  -1.2193750000   0.5241650000
	    C     0.0000000000   0.0000000000  -1.6447340000
	    H     0.0181700000   2.1647050000  -0.0108540000
	    H     0.0424020000   2.1528950000   2.4578860000
	    H     0.0000000000   0.0000000000   3.6957560000
	    H    -0.0424020000  -2.1528950000   2.4578860000
	    H    -0.0181700000  -2.1647050000  -0.0108530000
	    N     0.0346540000   1.1520980000  -2.3084600000
	    N    -0.0346540000  -1.1520970000  -2.3084610000
	    H     0.0565790000  -1.2096650000  -3.3159970000
	    H    -0.2244220000  -2.0135520000  -1.8133170000
	    H     0.2244220000   2.0135520000  -1.8133160000
	    H    -0.0565790000   1.2096660000  -3.3159970000
18
Geometry for iteration 1
	    C    -0.0178169318   0.0003740074  -0.1693396946
	    C     0.0038494337   1.2120454423   0.5564210529
	    C     0.0137200276   1.2086953422   1.9460346679
	    C    -0.0029328068  -0.0000744133   2.6433997292
	    C    -0.0151399456  -1.2089559848   1.9460287574
	    C    -0.0083203007  -1.2122290417   0.5564274297
	    C     0.0160347694  -0.0006477233  -1.6537737947
	    H    -0.0152829939   2.1763056589   0.0601874175
	    H     0.0272873043   2.1494957066   2.4864946279
	    H    -0.0001958042  -0.0001485577   3.7288961896
	    H    -0.0167595754  -2.1499330822   2.4864134407
	    H     0.0262740473  -2.1760803576   0.0600098595
	    N     0.0677437369   1.1309896680  -2.3553656503
	    N    -0.0638212150  -1.1314333191  -2.3553675668
	    H    -0.0082552796  -1.1417251118  -3.3677542599
	    H    -0.2701737900  -2.0136303555  -1.9100477233
	    H     0.2512088298   2.0180605309  -1.9097385672
	    H     0.0125804938   1.1388925907  -3.3679259157
18
Geometry for iteration 2
	    C    -0.0316652225   0.0008455278  -0.1753542401
	    C    -0.0055517310   1.2130024401   0.5439238507
	    C     0.0049771920   1.2099978768   1.9333152654
	    C    -0.0043652404  -0.0001018863   2.6312973015
	    C    -0.0129942148  -1.2098762881   1.9326974337
	    C    -0.0123951535  -1.2119820919   0.5432931753
	    C     0.0094417910  -0.0002538489  -1.6481351103
	    H    -0.0238842974   2.1757723250   0.0432720797
	    H     0.0184001730   2.1519763650   2.4715296669
	    H     0.0012568537  -0.0004350214   3.7168728065
	    H    -0.0094486256  -2.1522269068   2.4704312200
	    H     0.0209150546  -2.1737865756   0.0415652150
	    N     0.0721027133   1.1398088682  -2.3358497805
	    N    -0.0620306642  -1.1401098645  -2.3355525208
	    H    -0.0072057559  -1.1624263092  -3.3459759844
	    H    -0.2490006000  -2.0207298619  -1.8797765917
	    H     0.2468693818   2.0224198239  -1.8790865789
	    H     0.0445783458   1.1581064278  -3.3474672082
18
Geometry for iteration 3
	    C    -0.0275561367   0.0006670137  -0.1763949694
	    C    -0.0025606781   1.2125033286   0.5430237048
	    C     0.0053551508   1.2099087556   1.9326703342
	    C    -0.0023722233  -0.0000425752   2.6314054036
	    C    -0.0125277638  -1.2097618557   1.9323380327
	    C    -0.0153654642  -1.2117491149   0.5426469529
	    C     0.0113261856  -0.0004462576  -1.6472272206
	    H    -0.0249911915   2.1754373773   0.0423474063
	    H     0.0151195276   2.1523821257   2.4700844996
	    H     0.0027779799  -0.0002489701   3.7169625907
	    H    -0.0086431382  -2.1524294534   2.4694866373
	    H     0.0123739161  -2.1742226358   0.0414457414
	    N     0.0709231451   1.1392693613  -2.3348417067
	    N    -0.0633139058  -1.1389429590  -2.3351783860
	    H    -0.0203551265  -1.1604716162  -3.3463305105
	    H    -0.2357480742  -2.0216072898  -1.8775922695
	    H     0.2379164834   2.0227410658  -1.8768965930
	    H     0.0576413138   1.1570146996  -3.3469496479
18
Geometry for iteration 4
	    C    -0.0277109147   0.0006416405  -0.1770857870
	    C     0.0005383409   1.2122604963   0.5428725750
	    C     0.0096100294   1.2098232467   1.9326360870
	    C    -0.0005982743   0.0001013835   2.6317635092
	    C    -0.0161760942  -1.2094595719   1.9325320841
	    C    -0.0215227430  -1.2114827262   0.5427043985
	    C     0.0055088419  -0.0002194968  -1.6475749525
	    H    -0.0190324402   2.1753859276   0.0422175540
	    H     0.0216472344   2.1525527432   2.4695593907
	    H     0.0067986276  -0.0000297274   3.7172631783
	    H    -0.0148479927  -2.1523337448   2.4693375651
	    H    -0.0027424798  -2.1746542800   0.0421253773
	    N     0.0629360874   1.1396434681  -2.3350258953
	    N    -0.0604075350  -1.1385587268  -2.3360959720
	    H    -0.0269399399  -1.1597128585  -3.3477437098
	    H    -0.2052296894  -2.0254541604  -1.8764206407
	    H     0.2174095450   2.0241963426  -1.8745305256
	    H     0.0707593967   1.1573010444  -3.3475342362
18
Geometry for iteration 5
	    C    -0.0218264472   0.0002958902  -0.1770826360
	    C     0.0046393494   1.2121292404   0.5428213480
	    C     0.0121622888   1.2097783507   1.9324575742
	    C    -0.0014263099   0.0001897258   2.6315252635
	    C    -0.0189748577  -1.2094122883   1.9326242176
	    C    -0.0218220867  -1.2117589343   0.5429290822
	    C     0.0069318001  -0.0004409502  -1.6484472962
	    H    -0.0081191804   2.1752800409   0.0421139052
	    H     0.0261110154   2.1525036319   2.4693453402
	    H     0.0041941524   0.0001917381   3.7170302233
	    H    -0.0231969174  -2.1521796550   2.4696338690
	    H    -0.0101664008  -2.1752171197   0.0427751497
	    N     0.0585284174   1.1403609627  -2.3353357671
	    N    -0.0575045327  -1.1392484492  -2.3365040368
	    H    -0.0331606639  -1.1603623764  -3.3483185160
	    H    -0.1858710785  -2.0277591799  -1.8755134134
	    H     0.1988314104   2.0266123110  -1.8735189936
	    H     0.0706700414   1.1590380615  -3.3475353137
18
Geometry for iteration 0
	    C    -0.0277109147   0.0006416405  -0.1770857870
	    C     0.0005383409   1.2122604963   0.5428725750
	    C     0.0096100294   1.2098232467   1.9326360870
	    C    -0.0005982743   0.0001013835   2.6317635092
	    C    -0.0161760942  -1.2094595719   1.9325320841
	    C    -0.0215227430  -1.2114827262   0.5427043985
	    C     0.0055088419  -0.0002194968  -1.6475749525
	    H    -0.0190324402   2.1753859276   0.0422175540
	    H     0.0216472344   2.1525527432   2.4695593907
	    H     0.0067986276  -0.0000297274   3.7172631783
	    H    -0.0148479927  -2.1523337448   2.4693375651
	    H    -0.0027424798  -2.1746542800   0.0421253773
	    N     0.0629360874   1.1396434681  -2.3350258953
	    N    -0.0604075350  -1.1385587268  -2.3360959720
	    H    -0.0269399399  -1.1597128585  -3.3477437098
	    H    -0.2052296894  -2.0254541604  -1.8764206407
	    H     0.2174095450   2.0241963426  -1.8745305256
	    H     0.0707593967   1.1573010444  -3.3475342362
18
Geometry for iteration 0
	    C    -0.0277109147   0.0006416405  -0.1770857870
	    C     0.0005383409   1.2122604963   0.5428725750
	    C     0.0096100294   1.2098232467   1.9326360870
	    C    -0.0005982743   0.0001013835   2.6317635092
	    C    -0.0161760942  -1.2094595719   1.9325320841
	    C    -0.0215227430  -1.2114827262   0.5427043985
	    C     0.0055088419  -0.0002194968  -1.6475749525
	    H    -0.0190324402   2.1753859276   0.0422175540
	    H     0.0216472344   2.1525527432   2.4695593907
	    H     0.0067986276  -0.0000297274   3.7172631783
	    H    -0.0148479927  -2.1523337448   2.4693375651
	    H    -0.0027424798  -2.1746542800   0.0421253773
	    N     0.0629360874   1.1396434681  -2.3350258953
	    N    -0.0604075350  -1.1385587268  -2.3360959720
	    H    -0.0269399399  -1.1597128585  -3.3477437098
	    H    -0.2052296894  -2.0254541604  -1.8764206407
	    H     0.2174095450   2.0241963426  -1.8745305256
	    H     0.0707593967   1.1573010444  -3.3475342362
18
Geometry for iteration 1
	    C    -0.0274609614   0.0005794552  -0.1767393474
	    C    -0.0002058784   1.2123707471   0.5429891039
	    C     0.0093898864   1.2098534160   1.9326137947
	    C    -0.0005964226   0.0001166027   2.6315629917
	    C    -0.0160178896  -1.2094724304   1.9325147707
	    C    -0.0213183398  -1.2116134054   0.5428433332
	    C     0.0064126746  -0.0003252940  -1.6479710203
	    H    -0.0183868505   2.1753942816   0.0422972058
	    H     0.0217808975   2.1525209187   2.4696302168
	    H     0.0067858914  -0.0000214077   3.7171142567
	    H    -0.0150405395  -2.1522975883   2.4694059128
	    H    -0.0030295608  -2.1746379903   0.0421838021
	    N     0.0634921073   1.1398686570  -2.3351835241
	    N    -0.0607354233  -1.1389181163  -2.3361302988
	    H    -0.0272480685  -1.1599521797  -3.3476338014
	    H    -0.2050011698  -2.0254795118  -1.8765787423
	    H     0.2165605566   2.0244694010  -1.8745967750
	    H     0.0706249676   1.1575444454  -3.3473622163
18
Geometry for iteration 2
	    C    -0.0273202600   0.0005375651  -0.1765277458
	    C    -0.0004837113   1.2124352646   0.5430105130
	    C     0.0090520510   1.2098800984   1.9326105901
	    C    -0.0006571226   0.0001256123   2.6314350536
	    C    -0.0159173376  -1.2094937840   1.9325337579
	    C    -0.0210975646  -1.2117083787   0.5428910793
	    C     0.0070965362  -0.0003935651  -1.6482392309
	    H    -0.0174493487   2.1754267188   0.0423187436
	    H     0.0218499785   2.1524731299   2.4697520985
	    H     0.0067910103  -0.0000098915   3.7169701758
	    H    -0.0152861459  -2.1522469729   2.4695468529
	    H    -0.0034023989  -2.1746595974   0.0421775586
	    N     0.0642683712   1.1399071482  -2.3352844478
	    N    -0.0610278746  -1.1390590727  -2.3361873452
	    H    -0.0276336229  -1.1602047799  -3.3476455069
	    H    -0.2044812534  -2.0255922389  -1.8765727438
	    H     0.2152478467   2.0247606593  -1.8745384616
	    H     0.0704665797   1.1578196626  -3.3473603645
18
Geometry for iteration 3
	    C    -0.0272409649   0.0005233055  -0.1765018648
	    C    -0.0002308784   1.2124391348   0.5429683467
	    C     0.0088390275   1.2098899182   1.9326030322
	    C    -0.0007949962   0.0001271851   2.6313819775
	    C    -0.0159338529  -1.2095111853   1.9325481917
	    C    -0.0210601245  -1.2117430620   0.5428653565
	    C     0.0074464858  -0.0004211740  -1.6483523851
	    H    -0.0163510262   2.1754622366   0.0423045166
	    H     0.0218186300   2.1524209710   2.4698597840
	    H     0.0067623042   0.0000026036   3.7168908309
	    H    -0.0155129794  -2.1521964083   2.4696877645
	    H    -0.0038006466  -2.1746997213   0.0421404599
	    N     0.0650245719   1.1398274365  -2.3353356812
	    N    -0.0611836191  -1.1390629169  -2.3362392303
	    H    -0.0280321670  -1.1604289711  -3.3477208648
	    H    -0.2036794381  -2.0257143831  -1.8764526699
	    H     0.2136356830   2.0250053423  -1.8744061807
	    H     0.0703225687   1.1580737500  -3.3474436604
18
Geometry for iteration 4
	    C    -0.0272409649   0.0005233055  -0.1765018648
	    C    -0.0002308784   1.2124391348   0.5429683467
	    C     0.0088390275   1.2098899182   1.9326030322
	    C    -0.0007949962   0.0001271851   2.6313819775
	    C    -0.0159338529  -1.2095111853   1.9325481917
	    C    -0.0210601245  -1.2117430620   0.5428653565
	    C     0.0074464858  -0.0004211740  -1.6483523851
	    H    -0.0163510262   2.1754622366   0.0423045166
	    H     0.0218186300   2.1524209710   2.4698597840
	    H     0.0067623042   0.0000026036   3.7168908309
	    H    -0.0155129794  -2.1521964083   2.4696877645
	    H    -0.0038006466  -2.1746997213   0.0421404599
	    N     0.0650245719   1.1398274365  -2.3353356812
	    N    -0.0611836191  -1.1390629169  -2.3362392303
	    H    -0.0280321670  -1.1604289711  -3.3477208648
	    H    -0.2036794381  -2.0257143831  -1.8764526699
	    H     0.2136356830   2.0250053423  -1.8744061807
	    H     0.0703225687   1.1580737500  -3.3474436604
