18
Geometry for iteration 0
	    C     0.0000000000   0.0000000000  -0.1778640000
	    C     0.0366780000   1.2193740000   0.5241650000
	    C     0.0317650000   1.2131200000   1.9154440000
	    C     0.0000000000   0.0000000000   2.6101070000
	    C    -0.0317650000  -1.2131200000   1.9154440000
	    C    -0.0366780000  -1.2193750000   0.5241650000
	    C     0.0000000000   0.0000000000  -1.6447340000
	    H     0.0181700000   2.1647050000  -0.0108540000
	    H     0.0424020000   2.1528950000   2.4578860000
	    H     0.0000000000   0.0000000000   3.6957560000
	    H    -0.0424020000  -2.1528950000   2.4578860000
	    H    -0.0181700000  -2.1647050000  -0.0108530000
	    N     0.9048330000   0.7140070000  -2.3084600000
	    N    -0.9048330000  -0.7140070000  -2.3084610000
	    H    -0.8902890000  -0.8208990000  -3.3159970000
	    H    -1.6867260000  -1.1223690000  -1.8133170000
	    H     1.6867260000   1.1223690000  -1.8133160000
	    H     0.8902890000   0.8209000000  -3.3159960000
18
Geometry for iteration 1
	    C     0.0310945351   0.0125189347  -0.1787961080
	    C     0.0736526258   1.2283477373   0.5255756024
	    C     0.0548641708   1.2125189322   1.9174840008
	    C    -0.0044835530  -0.0048967229   2.6037978492
	    C    -0.0618852182  -1.2131857890   1.9014551274
	    C    -0.0608187019  -1.2111422816   0.5093948059
	    C    -0.0056672133   0.0233575999  -1.6459083804
	    H     0.0943349494   2.1736225497  -0.0112215172
	    H     0.0809101582   2.1486167851   2.4660685483
	    H    -0.0142847863  -0.0118122504   3.6894786144
	    H    -0.1099931484  -2.1560540177   2.4378775807
	    H    -0.0959268979  -2.1500509849  -0.0391494230
	    N     0.8783966831   0.7531117822  -2.3178754783
	    N    -0.8755740820  -0.7566885088  -2.2830738359
	    H    -0.8731786224  -0.8827018489  -3.2893565247
	    H    -1.6086552984  -1.2254901758  -1.7595143891
	    H     1.6321682778   1.2110471367  -1.8180267307
	    H     0.8650461217   0.8488811223  -3.3272087418
18
Geometry for iteration 2
	    C     0.0368698102   0.0001813329  -0.1778737668
	    C     0.0722124627   1.2194874303   0.5211201995
	    C     0.0474681477   1.2112829226   1.9131054666
	    C    -0.0101091074  -0.0023458969   2.6048554630
	    C    -0.0554910562  -1.2143544703   1.9084820972
	    C    -0.0491969290  -1.2197437453   0.5165259364
	    C     0.0043812761   0.0076836263  -1.6465489273
	    H     0.0907978129   2.1614305906  -0.0201706260
	    H     0.0640190496   2.1500601597   2.4573542456
	    H    -0.0229627375  -0.0037675992   3.6904471781
	    H    -0.0938579679  -2.1542319330   2.4498132255
	    H    -0.0660171066  -2.1608762949  -0.0264401096
	    N     0.8871663422   0.7394945635  -2.3167164175
	    N    -0.8845592832  -0.7429121183  -2.2888079691
	    H    -0.8928059493  -0.8527648589  -3.2968619349
	    H    -1.6278285193  -1.1919517817  -1.7682290042
	    H     1.6348160617   1.2017040924  -1.8147718286
	    H     0.8650976933   0.8516239803  -3.3242822279
18
Geometry for iteration 3
	    C     0.0321011618   0.0012172723  -0.1777983064
	    C     0.0696199212   1.2204815884   0.5213844925
	    C     0.0435432867   1.2120884348   1.9133490300
	    C    -0.0159519741  -0.0015600725   2.6045744748
	    C    -0.0598028244  -1.2135310730   1.9082076731
	    C    -0.0509501160  -1.2188240739   0.5163385359
	    C     0.0042839844   0.0096428781  -1.6472323952
	    H     0.0881706717   2.1627244222  -0.0191211160
	    H     0.0590099082   2.1506613389   2.4578479386
	    H    -0.0308300295  -0.0031672753   3.6901088371
	    H    -0.0973918916  -2.1532108840   2.4496690201
	    H    -0.0633604429  -2.1595557804  -0.0267347035
	    N     0.8916534641   0.7385025608  -2.3144813611
	    N    -0.8781095770  -0.7451151043  -2.2917867250
	    H    -0.8822723630  -0.8553163553  -3.2995470888
	    H    -1.6176386693  -1.2003992999  -1.7727085695
	    H     1.6351588425   1.2032962980  -1.8093654363
	    H     0.8727666472   0.8520651250  -3.3217033003
18
Geometry for iteration 4
	    C     0.0322443340   0.0005957482  -0.1778993825
	    C     0.0692535263   1.2201184949   0.5208664238
	    C     0.0436001619   1.2120800520   1.9128571227
	    C    -0.0157581262  -0.0014297040   2.6044078999
	    C    -0.0605006482  -1.2135489599   1.9083734869
	    C    -0.0518021943  -1.2191639176   0.5164939655
	    C     0.0058048339   0.0085055838  -1.6474479506
	    H     0.0872511848   2.1624358767  -0.0196142107
	    H     0.0599751117   2.1507721217   2.4571124214
	    H    -0.0308640597  -0.0028117348   3.6899517248
	    H    -0.0990957345  -2.1530439423   2.4501284523
	    H    -0.0650834886  -2.1601265634  -0.0263167953
	    N     0.8939637687   0.7370863760  -2.3142012807
	    N    -0.8781704342  -0.7445008539  -2.2918819412
	    H    -0.8830491426  -0.8539385642  -3.2996820031
	    H    -1.6176556589  -1.1998639911  -1.7725051648
	    H     1.6360836014   1.2036674142  -1.8085744582
	    H     0.8738029648   0.8531665635  -3.3210673101
18
Geometry for iteration 5
	    C     0.0323183515   0.0005993056  -0.1779026100
	    C     0.0694236009   1.2200886640   0.5208468110
	    C     0.0434337441   1.2120763699   1.9128484242
	    C    -0.0159238454  -0.0014191276   2.6044663380
	    C    -0.0604259458  -1.2135396352   1.9084288807
	    C    -0.0515236700  -1.2191505823   0.5165227449
	    C     0.0057843170   0.0084542337  -1.6474784325
	    H     0.0873250973   2.1624611899  -0.0195816836
	    H     0.0598685642   2.1507923197   2.4570718228
	    H    -0.0308259160  -0.0028047860   3.6900185360
	    H    -0.0990166524  -2.1530546588   2.4501809156
	    H    -0.0647639781  -2.1602221882  -0.0262061254
	    N     0.8939377767   0.7369750571  -2.3142196384
	    N    -0.8780914480  -0.7446671089  -2.2920369038
	    H    -0.8826188105  -0.8544708875  -3.2998340407
	    H    -1.6173820704  -1.2005665746  -1.7726804511
	    H     1.6351647719   1.2048490775  -1.8084025728
	    H     0.8733161129   0.8535993318  -3.3210410146
18
Geometry for iteration 6
	    C     0.0323183515   0.0005993056  -0.1779026100
	    C     0.0694236009   1.2200886640   0.5208468110
	    C     0.0434337441   1.2120763699   1.9128484242
	    C    -0.0159238454  -0.0014191276   2.6044663380
	    C    -0.0604259458  -1.2135396352   1.9084288807
	    C    -0.0515236700  -1.2191505823   0.5165227449
	    C     0.0057843170   0.0084542337  -1.6474784325
	    H     0.0873250973   2.1624611899  -0.0195816836
	    H     0.0598685642   2.1507923197   2.4570718228
	    H    -0.0308259160  -0.0028047860   3.6900185360
	    H    -0.0990166524  -2.1530546588   2.4501809156
	    H    -0.0647639781  -2.1602221882  -0.0262061254
	    N     0.8939377767   0.7369750571  -2.3142196384
	    N    -0.8780914480  -0.7446671089  -2.2920369038
	    H    -0.8826188105  -0.8544708875  -3.2998340407
	    H    -1.6173820704  -1.2005665746  -1.7726804511
	    H     1.6351647719   1.2048490775  -1.8084025728
	    H     0.8733161129   0.8535993318  -3.3210410146
